6

O              0.000000         -0.009833          0.000000
H             -0.799571         -0.580965          0.000000
H              0.799571         -0.580965          0.000000
O             -3.738727         -2.679917          0.000000
H             -4.573940         -3.197532          0.000000
H             -2.978221         -3.302121          0.000000

