6

O              0.000000         -0.009833          0.000000
H             -0.799571         -0.580965          0.000000
H              0.799571         -0.580965          0.000000
O             -3.088928         -2.216247          0.000000
H             -3.888499         -2.787379          0.000000
H             -2.289357         -2.787379          0.000000

