6

O              0.000000         -0.009833          0.000000
H             -0.799571         -0.580965          0.000000
H              0.799571         -0.580965          0.000000
O             -4.802047         -3.427365          0.000000
H             -5.635687         -2.907220          0.000000
H             -5.023722         -4.384635          0.000000

