6

O              0.000000         -0.009833          0.000000
H             -0.799571         -0.580965          0.000000
H              0.799571         -0.580965          0.000000
O             -2.277483         -1.636634          0.000000
H             -3.077054         -2.207766          0.000000
H             -1.477912         -2.207766          0.000000

