6

O              0.000000         -0.009833          0.000000
H             -0.799571         -0.580965          0.000000
H              0.799571         -0.580965          0.000000
O             -2.644268         -1.883114          0.000000
H             -3.314879         -1.164931          0.000000
H             -3.106149         -2.750393          0.000000

