6

O              0.000000         -0.009833          0.000000
H             -0.799571         -0.580965          0.000000
H              0.799571         -0.580965          0.000000
O             -2.407314         -1.729372          0.000000
H             -3.206886         -2.300504          0.000000
H             -1.607743         -2.300504          0.000000

