6

O              0.000000         -0.009833          0.000000
H             -0.799571         -0.580965          0.000000
H              0.799571         -0.580965          0.000000
O             -2.427892         -1.739950          0.000000
H             -3.397611         -1.898542          0.000000
H             -1.963384         -2.605824          0.000000

