6

O              0.000000         -0.009833          0.000000
H             -0.799571         -0.580965          0.000000
H              0.799571         -0.580965          0.000000
O             -4.898512         -3.498618          0.000000
H             -5.817609         -3.151103          0.000000
H             -4.929172         -4.480742          0.000000

