6

O              0.000000         -0.009833          0.000000
H             -0.799571         -0.580965          0.000000
H              0.799571         -0.580965          0.000000
O             -4.509358         -3.219858          0.000000
H             -5.403758         -2.812975          0.000000
H             -4.604187         -4.197873          0.000000

