6

O              0.000000         -0.009833          0.000000
H             -0.799571         -0.580965          0.000000
H              0.799571         -0.580965          0.000000
O             -4.036688         -2.886158          0.000000
H             -5.014411         -2.788364          0.000000
H             -3.812111         -3.842752          0.000000

