6

O              0.000000         -0.009833          0.000000
H             -0.799571         -0.580965          0.000000
H              0.799571         -0.580965          0.000000
O             -3.867915         -2.772676          0.000000
H             -4.667487         -3.343808          0.000000
H             -3.068344         -3.343808          0.000000

