6

O              0.000000         -0.009833          0.000000
H             -0.799571         -0.580965          0.000000
H              0.799571         -0.580965          0.000000
O             -3.468676         -2.480429          0.000000
H             -4.446399         -2.382635          0.000000
H             -3.244100         -3.437023          0.000000

