6

O              0.000000         -0.009833          0.000000
H             -0.799571         -0.580965          0.000000
H              0.799571         -0.580965          0.000000
O             -3.303667         -2.366198          0.000000
H             -4.260937         -2.587873          0.000000
H             -2.783522         -3.199838          0.000000

