6

O              0.000000         -0.009833          0.000000
H             -0.799571         -0.580965          0.000000
H              0.799571         -0.580965          0.000000
O             -4.835065         -3.448705          0.000000
H             -5.551211         -2.775919          0.000000
H             -5.239234         -4.344335          0.000000

