6

O              0.000000         -0.009833          0.000000
H             -0.799571         -0.580965          0.000000
H              0.799571         -0.580965          0.000000
O             -3.406588         -2.429828          0.000000
H             -4.204424         -1.856274          0.000000
H             -3.690397         -3.370550          0.000000

