6

O              0.000000         -0.009833          0.000000
H             -0.799571         -0.580965          0.000000
H              0.799571         -0.580965          0.000000
O             -4.851482         -3.458379          0.000000
H             -5.422614         -2.658807          0.000000
H             -5.422614         -4.257950          0.000000

