6

O              0.000000         -0.009833          0.000000
H             -0.799571         -0.580965          0.000000
H              0.799571         -0.580965          0.000000
O             -2.676789         -1.905658          0.000000
H             -3.298992         -1.145153          0.000000
H             -3.194403         -2.740872          0.000000

