6

O              0.000000         -0.009833          0.000000
H             -0.799571         -0.580965          0.000000
H              0.799571         -0.580965          0.000000
O             -2.087653         -1.496209          0.000000
H             -3.065668         -1.591039          0.000000
H             -1.680770         -2.390610          0.000000

