6

O              0.000000         -0.009833          0.000000
H             -0.799571         -0.580965          0.000000
H              0.799571         -0.580965          0.000000
O             -2.204140         -1.574826          0.000000
H             -3.143997         -1.288166          0.000000
H             -2.170501         -2.556851          0.000000

