6

O              0.000000         -0.009833          0.000000
H             -0.799571         -0.580965          0.000000
H              0.799571         -0.580965          0.000000
O             -2.705421         -1.936001          0.000000
H             -3.687446         -1.902362          0.000000
H             -2.418761         -2.875859          0.000000

