6

O              0.000000         -0.009833          0.000000
H             -0.799571         -0.580965          0.000000
H              0.799571         -0.580965          0.000000
O             -3.226560         -2.305138          0.000000
H             -4.166418         -2.018479          0.000000
H             -3.192922         -3.287164          0.000000

