6

O              0.000000         -0.009833          0.000000
H             -0.799571         -0.580965          0.000000
H              0.799571         -0.580965          0.000000
O             -2.010411         -1.434082          0.000000
H             -2.876285         -0.969573          0.000000
H             -2.169002         -2.403801          0.000000

