6

O              0.000000         -0.009833          0.000000
H             -0.799571         -0.580965          0.000000
H              0.799571         -0.580965          0.000000
O             -4.752452         -3.394288          0.000000
H             -5.671549         -3.046773          0.000000
H             -4.783112         -4.376411          0.000000

