6

O              0.000000         -0.009833          0.000000
H             -0.799571         -0.580965          0.000000
H              0.799571         -0.580965          0.000000
O             -3.439233         -2.452397          0.000000
H             -4.197848         -1.827890          0.000000
H             -3.783960         -3.372543          0.000000

