6

O              0.000000         -0.009833          0.000000
H             -0.799571         -0.580965          0.000000
H              0.799571         -0.580965          0.000000
O             -2.766895         -1.984067          0.000000
H             -3.687042         -2.328794          0.000000
H             -2.142388         -2.742682          0.000000

