6

O              0.000000         -0.009833          0.000000
H             -0.799571         -0.580965          0.000000
H              0.799571         -0.580965          0.000000
O             -2.576087         -1.842855          0.000000
H             -3.553810         -1.745060          0.000000
H             -2.351511         -2.799448          0.000000

