6

O              0.000000         -0.009833          0.000000
H             -0.799571         -0.580965          0.000000
H              0.799571         -0.580965          0.000000
O             -2.689192         -1.924409          0.000000
H             -3.671217         -1.890770          0.000000
H             -2.402532         -2.864266          0.000000

