6

O              0.000000         -0.009833          0.000000
H             -0.799571         -0.580965          0.000000
H              0.799571         -0.580965          0.000000
O             -2.446255         -1.750116          0.000000
H             -3.423978         -1.652322          0.000000
H             -2.221679         -2.706710          0.000000

