6

O              0.000000         -0.009833          0.000000
H             -0.799571         -0.580965          0.000000
H              0.799571         -0.580965          0.000000
O             -2.167041         -1.554966          0.000000
H             -3.107764         -1.838775          0.000000
H             -1.593488         -2.352802          0.000000

