6

O              0.000000         -0.009833          0.000000
H             -0.799571         -0.580965          0.000000
H              0.799571         -0.580965          0.000000
O             -4.442880         -3.175525          0.000000
H             -5.412113         -3.013994          0.000000
H             -4.281349         -4.144759          0.000000

