6

O              0.000000         -0.009833          0.000000
H             -0.799571         -0.580965          0.000000
H              0.799571         -0.580965          0.000000
O             -4.034553         -2.887585          0.000000
H             -5.004272         -3.046176          0.000000
H             -3.570045         -3.753459          0.000000

