6

O              0.000000         -0.009833          0.000000
H             -0.799571         -0.580965          0.000000
H              0.799571         -0.580965          0.000000
O             -2.219051         -1.587825          0.000000
H             -3.196774         -1.490030          0.000000
H             -1.994475         -2.544419          0.000000

