6

O              0.000000         -0.009833          0.000000
H             -0.799571         -0.580965          0.000000
H              0.799571         -0.580965          0.000000
O             -4.152322         -2.964828          0.000000
H             -5.046723         -2.557945          0.000000
H             -4.247151         -3.942843          0.000000

