6

O              0.000000         -0.009833          0.000000
H             -0.799571         -0.580965          0.000000
H              0.799571         -0.580965          0.000000
O             -4.393723         -3.141188          0.000000
H             -5.371446         -3.043394          0.000000
H             -4.169147         -4.097782          0.000000

