6

O              0.000000         -0.009833          0.000000
H             -0.799571         -0.580965          0.000000
H              0.799571         -0.580965          0.000000
O             -2.624773         -1.877631          0.000000
H             -3.602496         -1.779837          0.000000
H             -2.400197         -2.834225          0.000000

