6

O              0.000000         -0.009833          0.000000
H             -0.799571         -0.580965          0.000000
H              0.799571         -0.580965          0.000000
O             -2.660392         -1.895341          0.000000
H             -3.376538         -1.222556          0.000000
H             -3.064561         -2.790972          0.000000

