6

O              0.000000         -0.009833          0.000000
H             -0.799571         -0.580965          0.000000
H              0.799571         -0.580965          0.000000
O             -2.089689         -1.494647          0.000000
H             -3.058923         -1.333116          0.000000
H             -1.928158         -2.463880          0.000000

