6

O              0.000000         -0.009833          0.000000
H             -0.799571         -0.580965          0.000000
H              0.799571         -0.580965          0.000000
O             -3.876734         -2.767192          0.000000
H             -4.742608         -2.302683          0.000000
H             -4.035326         -3.736911          0.000000

