6

O              0.000000         -0.009833          0.000000
H             -0.799571         -0.580965          0.000000
H              0.799571         -0.580965          0.000000
O             -2.254524         -1.606161          0.000000
H             -3.013139         -0.981655          0.000000
H             -2.599250         -2.526308          0.000000

