6

O              0.000000         -0.009833          0.000000
H             -0.799571         -0.580965          0.000000
H              0.799571         -0.580965          0.000000
O             -2.020981         -1.450636          0.000000
H             -2.961704         -1.734444          0.000000
H             -1.447428         -2.248472          0.000000

