6

O              0.000000         -0.009833          0.000000
H             -0.799571         -0.580965          0.000000
H              0.799571         -0.580965          0.000000
O             -4.737859         -3.377876          0.000000
H             -5.360062         -2.617370          0.000000
H             -5.255474         -4.213089          0.000000

