6

O              0.000000         -0.009833          0.000000
H             -0.799571         -0.580965          0.000000
H              0.799571         -0.580965          0.000000
O             -3.665115         -2.617606          0.000000
H             -4.584212         -2.270091          0.000000
H             -3.695776         -3.599730          0.000000

