6

O              0.000000         -0.009833          0.000000
H             -0.799571         -0.580965          0.000000
H              0.799571         -0.580965          0.000000
O             -3.601836         -2.566418          0.000000
H             -4.224040         -1.805912          0.000000
H             -4.119451         -3.401631          0.000000

