6

O              0.000000         -0.009833          0.000000
H             -0.799571         -0.580965          0.000000
H              0.799571         -0.580965          0.000000
O             -2.595330         -1.849599          0.000000
H             -3.353946         -1.225092          0.000000
H             -2.940057         -2.769745          0.000000

