6

O              0.000000         -0.009833          0.000000
H             -0.799571         -0.580965          0.000000
H              0.799571         -0.580965          0.000000
O             -1.862015         -1.332795          0.000000
H             -2.839738         -1.235001          0.000000
H             -1.637439         -2.289389          0.000000

