6

O              0.000000         -0.009833          0.000000
H             -0.799571         -0.580965          0.000000
H              0.799571         -0.580965          0.000000
O             -4.232344         -3.024356          0.000000
H             -5.188938         -2.799780          0.000000
H             -4.134550         -4.002079          0.000000

