6

O              0.000000         -0.009833          0.000000
H             -0.799571         -0.580965          0.000000
H              0.799571         -0.580965          0.000000
O             -2.310584         -1.659798          0.000000
H             -3.145797         -2.177412          0.000000
H             -1.550078         -2.282001          0.000000

