6

O              0.000000         -0.009833          0.000000
H             -0.799571         -0.580965          0.000000
H              0.799571         -0.580965          0.000000
O             -4.072495         -2.901950          0.000000
H             -4.643627         -2.102378          0.000000
H             -4.643627         -3.701521          0.000000

