6

O              0.000000         -0.009833          0.000000
H             -0.799571         -0.580965          0.000000
H              0.799571         -0.580965          0.000000
O             -3.956861         -2.826790          0.000000
H             -4.896719         -2.540131          0.000000
H             -3.923222         -3.808816          0.000000

