6

O              0.000000         -0.009833          0.000000
H             -0.799571         -0.580965          0.000000
H              0.799571         -0.580965          0.000000
O             -2.172965         -1.549418          0.000000
H             -3.006605         -1.029273          0.000000
H             -2.394640         -2.506688          0.000000

