6

O              0.000000         -0.009833          0.000000
H             -0.799571         -0.580965          0.000000
H              0.799571         -0.580965          0.000000
O             -4.163196         -2.980815          0.000000
H             -5.103919         -3.264623          0.000000
H             -3.589642         -3.778651          0.000000

