6

O              0.000000         -0.009833          0.000000
H             -0.799571         -0.580965          0.000000
H              0.799571         -0.580965          0.000000
O             -3.415424         -2.447904          0.000000
H             -4.311055         -2.852073          0.000000
H             -2.742639         -3.164050          0.000000

