6

O              0.000000         -0.009833          0.000000
H             -0.799571         -0.580965          0.000000
H              0.799571         -0.580965          0.000000
O             -3.257700         -2.329730          0.000000
H             -4.235423         -2.231935          0.000000
H             -3.033124         -3.286323          0.000000

