6

O              0.000000         -0.009833          0.000000
H             -0.799571         -0.580965          0.000000
H              0.799571         -0.580965          0.000000
O             -3.973465         -2.837860          0.000000
H             -4.892562         -2.490344          0.000000
H             -4.004125         -3.819983          0.000000

