6

O              0.000000         -0.009833          0.000000
H             -0.799571         -0.580965          0.000000
H              0.799571         -0.580965          0.000000
O             -4.617605         -3.305398          0.000000
H             -5.558328         -3.589207          0.000000
H             -4.044051         -4.103234          0.000000

