6

O              0.000000         -0.009833          0.000000
H             -0.799571         -0.580965          0.000000
H              0.799571         -0.580965          0.000000
O             -4.750262         -3.396626          0.000000
H             -5.732287         -3.362987          0.000000
H             -4.463602         -4.336484          0.000000

