6

O              0.000000         -0.009833          0.000000
H             -0.799571         -0.580965          0.000000
H              0.799571         -0.580965          0.000000
O             -3.487241         -2.488978          0.000000
H             -4.353115         -2.024469          0.000000
H             -3.645832         -3.458696          0.000000

