6

O              0.000000         -0.009833          0.000000
H             -0.799571         -0.580965          0.000000
H              0.799571         -0.580965          0.000000
O             -2.769267         -1.983085          0.000000
H             -3.747282         -2.077914          0.000000
H             -2.362384         -2.877485          0.000000

