6

O              0.000000         -0.009833          0.000000
H             -0.799571         -0.580965          0.000000
H              0.799571         -0.580965          0.000000
O             -3.407089         -2.427310          0.000000
H             -4.029293         -1.666805          0.000000
H             -3.924704         -3.262523          0.000000

