6

O              0.000000         -0.009833          0.000000
H             -0.799571         -0.580965          0.000000
H              0.799571         -0.580965          0.000000
O             -3.958809         -2.822088          0.000000
H             -4.629420         -2.103904          0.000000
H             -4.420690         -3.689366          0.000000

