6

O              0.000000         -0.009833          0.000000
H             -0.799571         -0.580965          0.000000
H              0.799571         -0.580965          0.000000
O             -3.353507         -2.400406          0.000000
H             -4.331522         -2.495235          0.000000
H             -2.946624         -3.294807          0.000000

