6

O              0.000000         -0.009833          0.000000
H             -0.799571         -0.580965          0.000000
H              0.799571         -0.580965          0.000000
O             -4.086284         -2.920026          0.000000
H             -5.042877         -2.695450          0.000000
H             -3.988489         -3.897749          0.000000

