6

O              0.000000         -0.009833          0.000000
H             -0.799571         -0.580965          0.000000
H              0.799571         -0.580965          0.000000
O             -1.896809         -1.352936          0.000000
H             -2.762683         -0.888427          0.000000
H             -2.055400         -2.322655          0.000000

