6

O              0.000000         -0.009833          0.000000
H             -0.799571         -0.580965          0.000000
H              0.799571         -0.580965          0.000000
O             -2.642695         -1.887294          0.000000
H             -3.561792         -1.539778          0.000000
H             -2.673356         -2.869417          0.000000

