6

O              0.000000         -0.009833          0.000000
H             -0.799571         -0.580965          0.000000
H              0.799571         -0.580965          0.000000
O             -1.751763         -1.244256          0.000000
H             -2.322895         -0.444685          0.000000
H             -2.322895         -2.043828          0.000000

