6

O              0.000000         -0.009833          0.000000
H             -0.799571         -0.580965          0.000000
H              0.799571         -0.580965          0.000000
O             -2.529092         -1.806148          0.000000
H             -3.448189         -1.458633          0.000000
H             -2.559753         -2.788271          0.000000

