6

O              0.000000         -0.009833          0.000000
H             -0.799571         -0.580965          0.000000
H              0.799571         -0.580965          0.000000
O             -2.009768         -1.435195          0.000000
H             -2.928865         -1.087680          0.000000
H             -2.040429         -2.417319          0.000000

