6

O              0.000000         -0.009833          0.000000
H             -0.799571         -0.580965          0.000000
H              0.799571         -0.580965          0.000000
O             -3.852970         -2.761000          0.000000
H             -4.720248         -3.222880          0.000000
H             -3.134786         -3.431610          0.000000

