6

O              0.000000         -0.009833          0.000000
H             -0.799571         -0.580965          0.000000
H              0.799571         -0.580965          0.000000
O             -2.189922         -1.557890          0.000000
H             -2.812125         -0.797385          0.000000
H             -2.707536         -2.393104          0.000000

