6

O              0.000000         -0.009833          0.000000
H             -0.799571         -0.580965          0.000000
H              0.799571         -0.580965          0.000000
O             -4.476186         -3.197743          0.000000
H             -5.416043         -2.911083          0.000000
H             -4.442547         -4.179768          0.000000

