6

O              0.000000         -0.009833          0.000000
H             -0.799571         -0.580965          0.000000
H              0.799571         -0.580965          0.000000
O             -4.032749         -2.888264          0.000000
H             -4.952896         -3.232990          0.000000
H             -3.408242         -3.646879          0.000000

