6

O              0.000000         -0.009833          0.000000
H             -0.799571         -0.580965          0.000000
H              0.799571         -0.580965          0.000000
O             -3.891945         -2.780421          0.000000
H             -4.831803         -2.493762          0.000000
H             -3.858306         -3.762447          0.000000

