6

O              0.000000         -0.009833          0.000000
H             -0.799571         -0.580965          0.000000
H              0.799571         -0.580965          0.000000
O             -2.314858         -1.658501          0.000000
H             -3.292873         -1.753330          0.000000
H             -1.907974         -2.552902          0.000000

