6

O              0.000000         -0.009833          0.000000
H             -0.799571         -0.580965          0.000000
H              0.799571         -0.580965          0.000000
O             -4.032122         -2.888410          0.000000
H             -4.927753         -3.292579          0.000000
H             -3.359337         -3.604556          0.000000

