6

O              0.000000         -0.009833          0.000000
H             -0.799571         -0.580965          0.000000
H              0.799571         -0.580965          0.000000
O             -3.564483         -2.551105          0.000000
H             -4.542498         -2.645935          0.000000
H             -3.157599         -3.445506          0.000000

