6

O              0.000000         -0.009833          0.000000
H             -0.799571         -0.580965          0.000000
H              0.799571         -0.580965          0.000000
O             -4.127578         -2.958152          0.000000
H             -4.927149         -3.529284          0.000000
H             -3.328006         -3.529284          0.000000

