6

O              0.000000         -0.009833          0.000000
H             -0.799571         -0.580965          0.000000
H              0.799571         -0.580965          0.000000
O             -2.685124         -1.926252          0.000000
H             -3.580754         -2.330421          0.000000
H             -2.012338         -2.642398          0.000000

