6

O              0.000000         -0.009833          0.000000
H             -0.799571         -0.580965          0.000000
H              0.799571         -0.580965          0.000000
O             -4.022151         -2.872636          0.000000
H             -4.941248         -2.525121          0.000000
H             -4.052812         -3.854759          0.000000

