6

O              0.000000         -0.009833          0.000000
H             -0.799571         -0.580965          0.000000
H              0.799571         -0.580965          0.000000
O             -3.890130         -2.782236          0.000000
H             -4.872156         -2.748597          0.000000
H             -3.603470         -3.722094          0.000000

