6

O              0.000000         -0.009833          0.000000
H             -0.799571         -0.580965          0.000000
H              0.799571         -0.580965          0.000000
O             -2.526379         -1.808861          0.000000
H             -3.508503         -1.839522          0.000000
H             -2.178864         -2.727958          0.000000

