6

O              0.000000         -0.009833          0.000000
H             -0.799571         -0.580965          0.000000
H              0.799571         -0.580965          0.000000
O             -2.441690         -1.752368          0.000000
H             -3.337320         -2.156537          0.000000
H             -1.768905         -2.468514          0.000000

