6

O              0.000000         -0.009833          0.000000
H             -0.799571         -0.580965          0.000000
H              0.799571         -0.580965          0.000000
O             -3.064986         -2.188146          0.000000
H             -3.959387         -1.781263          0.000000
H             -3.159815         -3.166161          0.000000

