6

O              0.000000         -0.009833          0.000000
H             -0.799571         -0.580965          0.000000
H              0.799571         -0.580965          0.000000
O             -3.544621         -2.540747          0.000000
H             -4.411899         -3.002627          0.000000
H             -2.826437         -3.211357          0.000000

