6

O              0.000000         -0.009833          0.000000
H             -0.799571         -0.580965          0.000000
H              0.799571         -0.580965          0.000000
O             -2.481315         -1.769671          0.000000
H             -3.314954         -1.249526          0.000000
H             -2.702989         -2.726941          0.000000

