6

O              0.000000         -0.009833          0.000000
H             -0.799571         -0.580965          0.000000
H              0.799571         -0.580965          0.000000
O             -3.228071         -2.302313          0.000000
H             -4.025906         -1.728759          0.000000
H             -3.511879         -3.243036          0.000000

