6

O              0.000000         -0.009833          0.000000
H             -0.799571         -0.580965          0.000000
H              0.799571         -0.580965          0.000000
O             -2.027132         -1.444485          0.000000
H             -2.824968         -0.870932          0.000000
H             -2.310940         -2.385208          0.000000

