6

O              0.000000         -0.009833          0.000000
H             -0.799571         -0.580965          0.000000
H              0.799571         -0.580965          0.000000
O             -2.412231         -1.728055          0.000000
H             -3.390246         -1.822884          0.000000
H             -2.005348         -2.622455          0.000000

