6

O              0.000000         -0.009833          0.000000
H             -0.799571         -0.580965          0.000000
H              0.799571         -0.580965          0.000000
O             -2.296873         -1.647705          0.000000
H             -3.237595         -1.931513          0.000000
H             -1.723319         -2.445540          0.000000

