6

O              0.000000         -0.009833          0.000000
H             -0.799571         -0.580965          0.000000
H              0.799571         -0.580965          0.000000
O             -4.762423         -3.410062          0.000000
H             -5.658053         -3.814231          0.000000
H             -4.089637         -4.126208          0.000000

