6

O              0.000000         -0.009833          0.000000
H             -0.799571         -0.580965          0.000000
H              0.799571         -0.580965          0.000000
O             -1.667738         -1.193248          0.000000
H             -2.636972         -1.031717          0.000000
H             -1.506207         -2.162482          0.000000

