6

O              0.000000         -0.009833          0.000000
H             -0.799571         -0.580965          0.000000
H              0.799571         -0.580965          0.000000
O             -4.689109         -3.343740          0.000000
H             -5.359720         -2.625556          0.000000
H             -5.150990         -4.211018          0.000000

