6

O              0.000000         -0.009833          0.000000
H             -0.799571         -0.580965          0.000000
H              0.799571         -0.580965          0.000000
O             -4.665676         -3.340362          0.000000
H             -5.585822         -3.685089          0.000000
H             -4.041169         -4.098977          0.000000

