6

O              0.000000         -0.009833          0.000000
H             -0.799571         -0.580965          0.000000
H              0.799571         -0.580965          0.000000
O             -4.672943         -3.331507          0.000000
H             -5.295147         -2.571001          0.000000
H             -5.190558         -4.166720          0.000000

