6

O              0.000000         -0.009833          0.000000
H             -0.799571         -0.580965          0.000000
H              0.799571         -0.580965          0.000000
O             -3.747917         -2.670105          0.000000
H             -4.319049         -1.870533          0.000000
H             -4.319049         -3.469676          0.000000

