6

O              0.000000         -0.009833          0.000000
H             -0.799571         -0.580965          0.000000
H              0.799571         -0.580965          0.000000
O             -4.656652         -3.320555          0.000000
H             -5.327262         -2.602372          0.000000
H             -5.118532         -4.187834          0.000000

