6

O              0.000000         -0.009833          0.000000
H             -0.799571         -0.580965          0.000000
H              0.799571         -0.580965          0.000000
O             -3.825712         -2.735459          0.000000
H             -4.803435         -2.637665          0.000000
H             -3.601136         -3.692053          0.000000

