6

O              0.000000         -0.009833          0.000000
H             -0.799571         -0.580965          0.000000
H              0.799571         -0.580965          0.000000
O             -4.770254         -3.401701          0.000000
H             -5.440865         -2.683518          0.000000
H             -5.232134         -4.268980          0.000000

