6

O              0.000000         -0.009833          0.000000
H             -0.799571         -0.580965          0.000000
H              0.799571         -0.580965          0.000000
O             -4.640507         -3.307679          0.000000
H             -5.211639         -2.508108          0.000000
H             -5.211639         -4.107251          0.000000

