6

O              0.000000         -0.009833          0.000000
H             -0.799571         -0.580965          0.000000
H              0.799571         -0.580965          0.000000
O             -4.461240         -3.183927          0.000000
H             -5.294880         -2.663782          0.000000
H             -4.682915         -4.141198          0.000000

