6

O              0.000000         -0.009833          0.000000
H             -0.799571         -0.580965          0.000000
H              0.799571         -0.580965          0.000000
O             -3.062456         -2.191031          0.000000
H             -4.044482         -2.157392          0.000000
H             -2.775797         -3.130889          0.000000

