6

O              0.000000         -0.009833          0.000000
H             -0.799571         -0.580965          0.000000
H              0.799571         -0.580965          0.000000
O             -3.633793         -2.592120          0.000000
H             -4.431629         -2.018566          0.000000
H             -3.917601         -3.532842          0.000000

