6

O              0.000000         -0.009833          0.000000
H             -0.799571         -0.580965          0.000000
H              0.799571         -0.580965          0.000000
O             -2.060112         -1.464509          0.000000
H             -2.631244         -0.664938          0.000000
H             -2.631244         -2.264081          0.000000

