6

O              0.000000         -0.009833          0.000000
H             -0.799571         -0.580965          0.000000
H              0.799571         -0.580965          0.000000
O             -2.790391         -1.986804          0.000000
H             -3.412595         -1.226299          0.000000
H             -3.308006         -2.822017          0.000000

