6

O              0.000000         -0.009833          0.000000
H             -0.799571         -0.580965          0.000000
H              0.799571         -0.580965          0.000000
O             -2.569603         -1.845295          0.000000
H             -3.369175         -2.416427          0.000000
H             -1.770032         -2.416427          0.000000

