6

O              0.000000         -0.009833          0.000000
H             -0.799571         -0.580965          0.000000
H              0.799571         -0.580965          0.000000
O             -3.520629         -2.509097          0.000000
H             -4.191239         -1.790913          0.000000
H             -3.982509         -3.376375          0.000000

