6

O              0.000000         -0.009833          0.000000
H             -0.799571         -0.580965          0.000000
H              0.799571         -0.580965          0.000000
O             -2.164524         -1.555467          0.000000
H             -2.999737         -2.073082          0.000000
H             -1.404018         -2.177671          0.000000

