6

O              0.000000         -0.009833          0.000000
H             -0.799571         -0.580965          0.000000
H              0.799571         -0.580965          0.000000
O             -4.180613         -2.991915          0.000000
H             -5.150332         -3.150506          0.000000
H             -3.716105         -3.857789          0.000000

