6

O              0.000000         -0.009833          0.000000
H             -0.799571         -0.580965          0.000000
H              0.799571         -0.580965          0.000000
O             -2.559360         -1.831671          0.000000
H             -3.541386         -1.798032          0.000000
H             -2.272701         -2.771528          0.000000

