6

O              0.000000         -0.009833          0.000000
H             -0.799571         -0.580965          0.000000
H              0.799571         -0.580965          0.000000
O             -2.481541         -1.769069          0.000000
H             -3.279377         -1.195515          0.000000
H             -2.765349         -2.709791          0.000000

