6

O              0.000000         -0.009833          0.000000
H             -0.799571         -0.580965          0.000000
H              0.799571         -0.580965          0.000000
O             -3.333645         -2.390047          0.000000
H             -4.200924         -2.851928          0.000000
H             -2.615462         -3.060658          0.000000

