6

O              0.000000         -0.009833          0.000000
H             -0.799571         -0.580965          0.000000
H              0.799571         -0.580965          0.000000
O             -2.789398         -1.990510          0.000000
H             -3.655272         -1.526002          0.000000
H             -2.947989         -2.960229          0.000000

