6

O              0.000000         -0.009833          0.000000
H             -0.799571         -0.580965          0.000000
H              0.799571         -0.580965          0.000000
O             -2.263799         -1.624707          0.000000
H             -3.183946         -1.969434          0.000000
H             -1.639292         -2.383322          0.000000

