6

O              0.000000         -0.009833          0.000000
H             -0.799571         -0.580965          0.000000
H              0.799571         -0.580965          0.000000
O             -4.356065         -3.120360          0.000000
H             -5.223344         -3.582241          0.000000
H             -3.637882         -3.790971          0.000000

