6

O              0.000000         -0.009833          0.000000
H             -0.799571         -0.580965          0.000000
H              0.799571         -0.580965          0.000000
O             -2.577779         -1.840925          0.000000
H             -3.496876         -1.493409          0.000000
H             -2.608440         -2.823048          0.000000

