6

O              0.000000         -0.009833          0.000000
H             -0.799571         -0.580965          0.000000
H              0.799571         -0.580965          0.000000
O             -3.582278         -2.561575          0.000000
H             -4.560002         -2.463781          0.000000
H             -3.357702         -3.518169          0.000000

