6

O              0.000000         -0.009833          0.000000
H             -0.799571         -0.580965          0.000000
H              0.799571         -0.580965          0.000000
O             -2.157296         -1.535981          0.000000
H             -2.873443         -0.863196          0.000000
H             -2.561465         -2.431611          0.000000

