6

O              0.000000         -0.009833          0.000000
H             -0.799571         -0.580965          0.000000
H              0.799571         -0.580965          0.000000
O             -3.324952         -2.373055          0.000000
H             -4.190826         -1.908546          0.000000
H             -3.483543         -3.342774          0.000000

