6

O              0.000000         -0.009833          0.000000
H             -0.799571         -0.580965          0.000000
H              0.799571         -0.580965          0.000000
O             -4.037597         -2.885249          0.000000
H             -4.994191         -2.660673          0.000000
H             -3.939803         -3.862972          0.000000

