6

O              0.000000         -0.009833          0.000000
H             -0.799571         -0.580965          0.000000
H              0.799571         -0.580965          0.000000
O             -3.338845         -2.387691          0.000000
H             -4.316568         -2.289897          0.000000
H             -3.114269         -3.344285          0.000000

