6

O              0.000000         -0.009833          0.000000
H             -0.799571         -0.580965          0.000000
H              0.799571         -0.580965          0.000000
O             -4.653386         -3.326665          0.000000
H             -5.631109         -3.228870          0.000000
H             -4.428810         -4.283258          0.000000

