6

O              0.000000         -0.009833          0.000000
H             -0.799571         -0.580965          0.000000
H              0.799571         -0.580965          0.000000
O             -2.512081         -1.795576          0.000000
H             -3.468674         -1.571000          0.000000
H             -2.414286         -2.773299          0.000000

