6

O              0.000000         -0.009833          0.000000
H             -0.799571         -0.580965          0.000000
H              0.799571         -0.580965          0.000000
O             -2.595476         -1.848972          0.000000
H             -3.311623         -1.176187          0.000000
H             -2.999646         -2.744602          0.000000

