6

O              0.000000         -0.009833          0.000000
H             -0.799571         -0.580965          0.000000
H              0.799571         -0.580965          0.000000
O             -3.731166         -2.661673          0.000000
H             -4.529002         -2.088119          0.000000
H             -4.014975         -3.602396          0.000000

