6

O              0.000000         -0.009833          0.000000
H             -0.799571         -0.580965          0.000000
H              0.799571         -0.580965          0.000000
O             -2.424827         -1.740880          0.000000
H             -3.292105         -2.202761          0.000000
H             -1.706643         -2.411491          0.000000

