6

O              0.000000         -0.009833          0.000000
H             -0.799571         -0.580965          0.000000
H              0.799571         -0.580965          0.000000
O             -2.820430         -2.015829          0.000000
H             -3.777023         -1.791253          0.000000
H             -2.722635         -2.993552          0.000000

