6

O              0.000000         -0.009833          0.000000
H             -0.799571         -0.580965          0.000000
H              0.799571         -0.580965          0.000000
O             -4.883940         -3.481563          0.000000
H             -5.455072         -2.681992          0.000000
H             -5.455072         -4.281135          0.000000

