6

O              0.000000         -0.009833          0.000000
H             -0.799571         -0.580965          0.000000
H              0.799571         -0.580965          0.000000
O             -3.049553         -2.174798          0.000000
H             -3.847389         -1.601244          0.000000
H             -3.333361         -3.115521          0.000000

