6

O              0.000000         -0.009833          0.000000
H             -0.799571         -0.580965          0.000000
H              0.799571         -0.580965          0.000000
O             -2.930988         -2.099311          0.000000
H             -3.900707         -2.257902          0.000000
H             -2.466480         -2.965185          0.000000

