6

O              0.000000         -0.009833          0.000000
H             -0.799571         -0.580965          0.000000
H              0.799571         -0.580965          0.000000
O             -3.042160         -2.181282          0.000000
H             -3.937790         -2.585451          0.000000
H             -2.369374         -2.897428          0.000000

