6

O              0.000000         -0.009833          0.000000
H             -0.799571         -0.580965          0.000000
H              0.799571         -0.580965          0.000000
O             -3.098740         -2.207057          0.000000
H             -3.720944         -1.446552          0.000000
H             -3.616355         -3.042271          0.000000

