6

O              0.000000         -0.009833          0.000000
H             -0.799571         -0.580965          0.000000
H              0.799571         -0.580965          0.000000
O             -4.306738         -3.085646          0.000000
H             -5.141952         -3.603261          0.000000
H             -3.546233         -3.707850          0.000000

