6

O              0.000000         -0.009833          0.000000
H             -0.799571         -0.580965          0.000000
H              0.799571         -0.580965          0.000000
O             -4.899980         -3.495074          0.000000
H             -5.616126         -2.822288          0.000000
H             -5.304149         -4.390704          0.000000

