6

O              0.000000         -0.009833          0.000000
H             -0.799571         -0.580965          0.000000
H              0.799571         -0.580965          0.000000
O             -4.021776         -2.873159          0.000000
H             -4.961634         -2.586500          0.000000
H             -3.988138         -3.855185          0.000000

