6

O              0.000000         -0.009833          0.000000
H             -0.799571         -0.580965          0.000000
H              0.799571         -0.580965          0.000000
O             -3.666773         -2.612143          0.000000
H             -4.237905         -1.812572          0.000000
H             -4.237905         -3.411715          0.000000

