6

O              0.000000         -0.009833          0.000000
H             -0.799571         -0.580965          0.000000
H              0.799571         -0.580965          0.000000
O             -4.507325         -3.222334          0.000000
H             -5.485049         -3.124540          0.000000
H             -4.282749         -4.178928          0.000000

