6

O              0.000000         -0.009833          0.000000
H             -0.799571         -0.580965          0.000000
H              0.799571         -0.580965          0.000000
O             -2.315404         -1.658161          0.000000
H             -3.297527         -1.688822          0.000000
H             -1.967889         -2.577258          0.000000

