6

O              0.000000         -0.009833          0.000000
H             -0.799571         -0.580965          0.000000
H              0.799571         -0.580965          0.000000
O             -1.887990         -1.358420          0.000000
H             -2.687561         -1.929552          0.000000
H             -1.088418         -1.929552          0.000000

