6

O              0.000000         -0.009833          0.000000
H             -0.799571         -0.580965          0.000000
H              0.799571         -0.580965          0.000000
O             -1.767656         -1.258393          0.000000
H             -2.526272         -0.633887          0.000000
H             -2.112383         -2.178540          0.000000

