6

O              0.000000         -0.009833          0.000000
H             -0.799571         -0.580965          0.000000
H              0.799571         -0.580965          0.000000
O             -4.880590         -3.488956          0.000000
H             -5.858313         -3.391162          0.000000
H             -4.656014         -4.445550          0.000000

