6

O              0.000000         -0.009833          0.000000
H             -0.799571         -0.580965          0.000000
H              0.799571         -0.580965          0.000000
O             -4.137390         -2.948962          0.000000
H             -4.759593         -2.188457          0.000000
H             -4.655004         -3.784175          0.000000

