6

O              0.000000         -0.009833          0.000000
H             -0.799571         -0.580965          0.000000
H              0.799571         -0.580965          0.000000
O             -2.544098         -1.819230          0.000000
H             -3.513332         -1.657699          0.000000
H             -2.382567         -2.788464          0.000000

