6

O              0.000000         -0.009833          0.000000
H             -0.799571         -0.580965          0.000000
H              0.799571         -0.580965          0.000000
O             -4.471545         -3.201068          0.000000
H             -5.412268         -3.484876          0.000000
H             -3.897991         -3.998904          0.000000

