6

O              0.000000         -0.009833          0.000000
H             -0.799571         -0.580965          0.000000
H              0.799571         -0.580965          0.000000
O             -1.990280         -1.426656          0.000000
H             -2.968295         -1.521485          0.000000
H             -1.583396         -2.321056          0.000000

