6

O              0.000000         -0.009833          0.000000
H             -0.799571         -0.580965          0.000000
H              0.799571         -0.580965          0.000000
O             -4.331143         -3.091775          0.000000
H             -5.197017         -2.627267          0.000000
H             -4.489735         -4.061494          0.000000

