6

O              0.000000         -0.009833          0.000000
H             -0.799571         -0.580965          0.000000
H              0.799571         -0.580965          0.000000
O             -4.589380         -3.279386          0.000000
H             -5.545973         -3.054810          0.000000
H             -4.491585         -4.257109          0.000000

