6

O              0.000000         -0.009833          0.000000
H             -0.799571         -0.580965          0.000000
H              0.799571         -0.580965          0.000000
O             -4.007495         -2.856864          0.000000
H             -4.678106         -2.138681          0.000000
H             -4.469376         -3.724143          0.000000

