6

O              0.000000         -0.009833          0.000000
H             -0.799571         -0.580965          0.000000
H              0.799571         -0.580965          0.000000
O             -2.756940         -1.967326          0.000000
H             -3.622814         -1.502817          0.000000
H             -2.915532         -2.937045          0.000000

