6

O              0.000000         -0.009833          0.000000
H             -0.799571         -0.580965          0.000000
H              0.799571         -0.580965          0.000000
O             -1.946174         -1.385908          0.000000
H             -2.704790         -0.761402          0.000000
H             -2.290901         -2.306055          0.000000

