6

O              0.000000         -0.009833          0.000000
H             -0.799571         -0.580965          0.000000
H              0.799571         -0.580965          0.000000
O             -2.913571         -2.088211          0.000000
H             -3.854293         -2.372019          0.000000
H             -2.340017         -2.886046          0.000000

