6

O              0.000000         -0.009833          0.000000
H             -0.799571         -0.580965          0.000000
H              0.799571         -0.580965          0.000000
O             -4.392703         -3.141971          0.000000
H             -5.374826         -3.172632          0.000000
H             -4.045188         -4.061068          0.000000

