6

O              0.000000         -0.009833          0.000000
H             -0.799571         -0.580965          0.000000
H              0.799571         -0.580965          0.000000
O             -3.743001         -2.678621          0.000000
H             -4.721016         -2.773450          0.000000
H             -3.336117         -3.573021          0.000000

