6

O              0.000000         -0.009833          0.000000
H             -0.799571         -0.580965          0.000000
H              0.799571         -0.580965          0.000000
O             -3.691316         -2.644972          0.000000
H             -4.586946         -3.049141          0.000000
H             -3.018530         -3.361119          0.000000

