6

O              0.000000         -0.009833          0.000000
H             -0.799571         -0.580965          0.000000
H              0.799571         -0.580965          0.000000
O             -2.189421         -1.560408          0.000000
H             -2.987257         -0.986854          0.000000
H             -2.473229         -2.501131          0.000000

