6

O              0.000000         -0.009833          0.000000
H             -0.799571         -0.580965          0.000000
H              0.799571         -0.580965          0.000000
O             -2.394246         -1.717258          0.000000
H             -3.334969         -2.001066          0.000000
H             -1.820692         -2.515094          0.000000

