6

O              0.000000         -0.009833          0.000000
H             -0.799571         -0.580965          0.000000
H              0.799571         -0.580965          0.000000
O             -3.160797         -2.259736          0.000000
H             -4.130030         -2.098205          0.000000
H             -2.999266         -3.228970          0.000000

