6

O              0.000000         -0.009833          0.000000
H             -0.799571         -0.580965          0.000000
H              0.799571         -0.580965          0.000000
O             -2.383941         -1.700117          0.000000
H             -3.217581         -1.179973          0.000000
H             -2.605616         -2.657388          0.000000

