6

O              0.000000         -0.009833          0.000000
H             -0.799571         -0.580965          0.000000
H              0.799571         -0.580965          0.000000
O             -4.874107         -3.491397          0.000000
H             -5.673678         -4.062528          0.000000
H             -4.074535         -4.062528          0.000000

