6

O              0.000000         -0.009833          0.000000
H             -0.799571         -0.580965          0.000000
H              0.799571         -0.580965          0.000000
O             -4.242463         -3.039214          0.000000
H             -5.109742         -3.501095          0.000000
H             -3.524280         -3.709825          0.000000

