6

O              0.000000         -0.009833          0.000000
H             -0.799571         -0.580965          0.000000
H              0.799571         -0.580965          0.000000
O             -3.924403         -2.803606          0.000000
H             -4.864261         -2.516946          0.000000
H             -3.890764         -3.785632          0.000000

