6

O              0.000000         -0.009833          0.000000
H             -0.799571         -0.580965          0.000000
H              0.799571         -0.580965          0.000000
O             -2.854579         -2.036293          0.000000
H             -3.688219         -1.516148          0.000000
H             -3.076254         -2.993563          0.000000

