6

O              0.000000         -0.009833          0.000000
H             -0.799571         -0.580965          0.000000
H              0.799571         -0.580965          0.000000
O             -3.568877         -2.545750          0.000000
H             -4.366713         -1.972197          0.000000
H             -3.852686         -3.486473          0.000000

