6

O              0.000000         -0.009833          0.000000
H             -0.799571         -0.580965          0.000000
H              0.799571         -0.580965          0.000000
O             -3.618002         -2.578650          0.000000
H             -4.288613         -1.860467          0.000000
H             -4.079883         -3.445929          0.000000

