6

O              0.000000         -0.009833          0.000000
H             -0.799571         -0.580965          0.000000
H              0.799571         -0.580965          0.000000
O             -2.964560         -2.121852          0.000000
H             -3.946683         -2.152513          0.000000
H             -2.617045         -3.040949          0.000000

