6

O              0.000000         -0.009833          0.000000
H             -0.799571         -0.580965          0.000000
H              0.799571         -0.580965          0.000000
O             -1.913968         -1.361462          0.000000
H             -2.584578         -0.643279          0.000000
H             -2.375848         -2.228741          0.000000

