6

O              0.000000         -0.009833          0.000000
H             -0.799571         -0.580965          0.000000
H              0.799571         -0.580965          0.000000
O             -2.117739         -1.520376          0.000000
H             -3.037886         -1.865103          0.000000
H             -1.493232         -2.278992          0.000000

