6

O              0.000000         -0.009833          0.000000
H             -0.799571         -0.580965          0.000000
H              0.799571         -0.580965          0.000000
O             -4.299679         -3.064885          0.000000
H             -4.921882         -2.304379          0.000000
H             -4.817294         -3.900098          0.000000

