6

O              0.000000         -0.009833          0.000000
H             -0.799571         -0.580965          0.000000
H              0.799571         -0.580965          0.000000
O             -2.672963         -1.912816          0.000000
H             -3.654988         -1.879178          0.000000
H             -2.386303         -2.852674          0.000000

