6

O              0.000000         -0.009833          0.000000
H             -0.799571         -0.580965          0.000000
H              0.799571         -0.580965          0.000000
O             -2.200688         -1.577659          0.000000
H             -3.170407         -1.736250          0.000000
H             -1.736179         -2.443533          0.000000

