6

O              0.000000         -0.009833          0.000000
H             -0.799571         -0.580965          0.000000
H              0.799571         -0.580965          0.000000
O             -4.502125         -3.224690          0.000000
H             -5.369404         -3.686571          0.000000
H             -3.783942         -3.895301          0.000000

