6

O              0.000000         -0.009833          0.000000
H             -0.799571         -0.580965          0.000000
H              0.799571         -0.580965          0.000000
O             -4.866054         -3.475434          0.000000
H             -5.785151         -3.127919          0.000000
H             -4.896715         -4.457557          0.000000

