6

O              0.000000         -0.009833          0.000000
H             -0.799571         -0.580965          0.000000
H              0.799571         -0.580965          0.000000
O             -2.626466         -1.875701          0.000000
H             -3.545563         -1.528186          0.000000
H             -2.657127         -2.857825          0.000000

