6

O              0.000000         -0.009833          0.000000
H             -0.799571         -0.580965          0.000000
H              0.799571         -0.580965          0.000000
O             -3.762829         -2.686614          0.000000
H             -4.657229         -2.279730          0.000000
H             -3.857658         -3.664629          0.000000

