6

O              0.000000         -0.009833          0.000000
H             -0.799571         -0.580965          0.000000
H              0.799571         -0.580965          0.000000
O             -2.806119         -2.000914          0.000000
H             -3.603955         -1.427360          0.000000
H             -3.089927         -2.941637          0.000000

