6

O              0.000000         -0.009833          0.000000
H             -0.799571         -0.580965          0.000000
H              0.799571         -0.580965          0.000000
O             -3.399822         -2.436165          0.000000
H             -4.319969         -2.780892          0.000000
H             -2.775315         -3.194781          0.000000

