6

O              0.000000         -0.009833          0.000000
H             -0.799571         -0.580965          0.000000
H              0.799571         -0.580965          0.000000
O             -1.942662         -1.391165          0.000000
H             -2.924688         -1.357526          0.000000
H             -1.656003         -2.331022          0.000000

