6

O              0.000000         -0.009833          0.000000
H             -0.799571         -0.580965          0.000000
H              0.799571         -0.580965          0.000000
O             -2.008985         -1.436216          0.000000
H             -2.965579         -1.211640          0.000000
H             -1.911190         -2.413939          0.000000

