6

O              0.000000         -0.009833          0.000000
H             -0.799571         -0.580965          0.000000
H              0.799571         -0.580965          0.000000
O             -2.867710         -2.051924          0.000000
H             -3.849735         -2.018285          0.000000
H             -2.581050         -2.991781          0.000000

