6

O              0.000000         -0.009833          0.000000
H             -0.799571         -0.580965          0.000000
H              0.799571         -0.580965          0.000000
O             -2.774183         -1.974569          0.000000
H             -3.345315         -1.174997          0.000000
H             -3.345315         -2.774140          0.000000

