6

O              0.000000         -0.009833          0.000000
H             -0.799571         -0.580965          0.000000
H              0.799571         -0.580965          0.000000
O             -2.821213         -2.014809          0.000000
H             -3.740310         -1.667293          0.000000
H             -2.851873         -2.996932          0.000000

