6

O              0.000000         -0.009833          0.000000
H             -0.799571         -0.580965          0.000000
H              0.799571         -0.580965          0.000000
O             -1.941025         -1.392182          0.000000
H             -2.910744         -1.550774          0.000000
H             -1.476517         -2.258057          0.000000

