6

O              0.000000         -0.009833          0.000000
H             -0.799571         -0.580965          0.000000
H              0.799571         -0.580965          0.000000
O             -3.212363         -2.287560          0.000000
H             -3.783495         -1.487988          0.000000
H             -3.783495         -3.087131          0.000000

