6

O              0.000000         -0.009833          0.000000
H             -0.799571         -0.580965          0.000000
H              0.799571         -0.580965          0.000000
O             -4.311012         -3.084350          0.000000
H             -5.289027         -3.179179          0.000000
H             -3.904129         -3.978750          0.000000

