6

O              0.000000         -0.009833          0.000000
H             -0.799571         -0.580965          0.000000
H              0.799571         -0.580965          0.000000
O             -2.855328         -2.032530          0.000000
H             -3.426460         -1.232959          0.000000
H             -3.426460         -2.832101          0.000000

