6

O              0.000000         -0.009833          0.000000
H             -0.799571         -0.580965          0.000000
H              0.799571         -0.580965          0.000000
O             -2.108276         -1.502447          0.000000
H             -2.906112         -0.928893          0.000000
H             -2.392085         -2.443169          0.000000

