6

O              0.000000         -0.009833          0.000000
H             -0.799571         -0.580965          0.000000
H              0.799571         -0.580965          0.000000
O             -4.635590         -3.316195          0.000000
H             -5.613605         -3.411024          0.000000
H             -4.228707         -4.210596          0.000000

