6

O              0.000000         -0.009833          0.000000
H             -0.799571         -0.580965          0.000000
H              0.799571         -0.580965          0.000000
O             -4.671950         -3.335213          0.000000
H             -5.537824         -2.870704          0.000000
H             -4.830541         -4.304932          0.000000

