6

O              0.000000         -0.009833          0.000000
H             -0.799571         -0.580965          0.000000
H              0.799571         -0.580965          0.000000
O             -1.912020         -1.366165          0.000000
H             -2.851877         -1.079505          0.000000
H             -1.878381         -2.348191          0.000000

