6

O              0.000000         -0.009833          0.000000
H             -0.799571         -0.580965          0.000000
H              0.799571         -0.580965          0.000000
O             -4.071481         -2.906299          0.000000
H             -4.937355         -2.441790          0.000000
H             -4.230072         -3.876018          0.000000

