6

O              0.000000         -0.009833          0.000000
H             -0.799571         -0.580965          0.000000
H              0.799571         -0.580965          0.000000
O             -1.668586         -1.192281          0.000000
H             -2.608444         -0.905621          0.000000
H             -1.634947         -2.174307          0.000000

