6

O              0.000000         -0.009833          0.000000
H             -0.799571         -0.580965          0.000000
H              0.799571         -0.580965          0.000000
O             -1.797569         -1.285986          0.000000
H             -2.766803         -1.124455          0.000000
H             -1.636038         -2.255220          0.000000

