6

O              0.000000         -0.009833          0.000000
H             -0.799571         -0.580965          0.000000
H              0.799571         -0.580965          0.000000
O             -2.585832         -1.856887          0.000000
H             -3.385404         -2.428019          0.000000
H             -1.786261         -2.428019          0.000000

