6

O              0.000000         -0.009833          0.000000
H             -0.799571         -0.580965          0.000000
H              0.799571         -0.580965          0.000000
O             -4.509661         -3.219290          0.000000
H             -5.375535         -2.754782          0.000000
H             -4.668252         -4.189009          0.000000

