6

O              0.000000         -0.009833          0.000000
H             -0.799571         -0.580965          0.000000
H              0.799571         -0.580965          0.000000
O             -2.834182         -2.029454          0.000000
H             -3.812197         -2.124283          0.000000
H             -2.427299         -2.923854          0.000000

