6

O              0.000000         -0.009833          0.000000
H             -0.799571         -0.580965          0.000000
H              0.799571         -0.580965          0.000000
O             -4.721651         -3.365641          0.000000
H             -5.292783         -2.566069          0.000000
H             -5.292783         -4.165212          0.000000

