6

O              0.000000         -0.009833          0.000000
H             -0.799571         -0.580965          0.000000
H              0.799571         -0.580965          0.000000
O             -4.445739         -3.169215          0.000000
H             -5.067942         -2.408709          0.000000
H             -4.963354         -4.004428          0.000000

