6

O              0.000000         -0.009833          0.000000
H             -0.799571         -0.580965          0.000000
H              0.799571         -0.580965          0.000000
O             -2.789095         -1.991078          0.000000
H             -3.683495         -1.584194          0.000000
H             -2.883924         -2.969093          0.000000

