6

O              0.000000         -0.009833          0.000000
H             -0.799571         -0.580965          0.000000
H              0.799571         -0.580965          0.000000
O             -3.503962         -2.499382          0.000000
H             -4.301798         -1.925828          0.000000
H             -3.787770         -3.440104          0.000000

