6

O              0.000000         -0.009833          0.000000
H             -0.799571         -0.580965          0.000000
H              0.799571         -0.580965          0.000000
O             -3.406921         -2.428585          0.000000
H             -4.123068         -1.755800          0.000000
H             -3.811090         -3.324216          0.000000

