6

O              0.000000         -0.009833          0.000000
H             -0.799571         -0.580965          0.000000
H              0.799571         -0.580965          0.000000
O             -2.736241         -1.960203          0.000000
H             -3.705960         -2.118795          0.000000
H             -2.271733         -2.826077          0.000000

