6

O              0.000000         -0.009833          0.000000
H             -0.799571         -0.580965          0.000000
H              0.799571         -0.580965          0.000000
O             -3.178892         -2.268725          0.000000
H             -4.044766         -1.804216          0.000000
H             -3.337483         -3.238444          0.000000

