6

O              0.000000         -0.009833          0.000000
H             -0.799571         -0.580965          0.000000
H              0.799571         -0.580965          0.000000
O             -2.202822         -1.576233          0.000000
H             -3.180545         -1.478438          0.000000
H             -1.978246         -2.532826          0.000000

