6

O              0.000000         -0.009833          0.000000
H             -0.799571         -0.580965          0.000000
H              0.799571         -0.580965          0.000000
O             -4.835254         -3.446787          0.000000
H             -5.406385         -2.647215          0.000000
H             -5.406386         -4.246358          0.000000

