6

O              0.000000         -0.009833          0.000000
H             -0.799571         -0.580965          0.000000
H              0.799571         -0.580965          0.000000
O             -4.454074         -3.189809          0.000000
H             -5.349704         -3.593978          0.000000
H             -3.781288         -3.905955          0.000000

