6

O              0.000000         -0.009833          0.000000
H             -0.799571         -0.580965          0.000000
H              0.799571         -0.580965          0.000000
O             -4.682521         -3.351767          0.000000
H             -5.623243         -3.635576          0.000000
H             -4.108967         -4.149603          0.000000

