6

O              0.000000         -0.009833          0.000000
H             -0.799571         -0.580965          0.000000
H              0.799571         -0.580965          0.000000
O             -4.591631         -3.274821          0.000000
H             -5.307777         -2.602035          0.000000
H             -4.995800         -4.170451          0.000000

