6

O              0.000000         -0.009833          0.000000
H             -0.799571         -0.580965          0.000000
H              0.799571         -0.580965          0.000000
O             -2.750039         -1.972621          0.000000
H             -3.645670         -2.376790          0.000000
H             -2.077254         -2.688767          0.000000

