6

O              0.000000         -0.009833          0.000000
H             -0.799571         -0.580965          0.000000
H              0.799571         -0.580965          0.000000
O             -2.899644         -2.075483          0.000000
H             -3.881767         -2.106144          0.000000
H             -2.552129         -2.994580          0.000000

