6

O              0.000000         -0.009833          0.000000
H             -0.799571         -0.580965          0.000000
H              0.799571         -0.580965          0.000000
O             -2.961015         -2.123320          0.000000
H             -3.856645         -2.527489          0.000000
H             -2.288230         -2.839467          0.000000

