6

O              0.000000         -0.009833          0.000000
H             -0.799571         -0.580965          0.000000
H              0.799571         -0.580965          0.000000
O             -2.189859         -1.558531          0.000000
H             -2.860470         -0.840348          0.000000
H             -2.651739         -2.425809          0.000000

