6

O              0.000000         -0.009833          0.000000
H             -0.799571         -0.580965          0.000000
H              0.799571         -0.580965          0.000000
O             -3.775458         -2.701805          0.000000
H             -4.753474         -2.796634          0.000000
H             -3.368575         -3.596206          0.000000

