6

O              0.000000         -0.009833          0.000000
H             -0.799571         -0.580965          0.000000
H              0.799571         -0.580965          0.000000
O             -4.802796         -3.423602          0.000000
H             -5.373928         -2.624030          0.000000
H             -5.373928         -4.223173          0.000000

