6

O              0.000000         -0.009833          0.000000
H             -0.799571         -0.580965          0.000000
H              0.799571         -0.580965          0.000000
O             -2.805323         -2.002670          0.000000
H             -3.699724         -1.595787          0.000000
H             -2.900153         -2.980685          0.000000

