6

O              0.000000         -0.009833          0.000000
H             -0.799571         -0.580965          0.000000
H              0.799571         -0.580965          0.000000
O             -2.609014         -1.865599          0.000000
H             -3.578248         -1.704068          0.000000
H             -2.447483         -2.834833          0.000000

