6

O              0.000000         -0.009833          0.000000
H             -0.799571         -0.580965          0.000000
H              0.799571         -0.580965          0.000000
O             -4.413218         -3.146671          0.000000
H             -5.083829         -2.428488          0.000000
H             -4.875099         -4.013950          0.000000

