6

O              0.000000         -0.009833          0.000000
H             -0.799571         -0.580965          0.000000
H              0.799571         -0.580965          0.000000
O             -4.624257         -3.296730          0.000000
H             -5.246460         -2.536224          0.000000
H             -5.141871         -4.131943          0.000000

