6

O              0.000000         -0.009833          0.000000
H             -0.799571         -0.580965          0.000000
H              0.799571         -0.580965          0.000000
O             -1.733502         -1.238650          0.000000
H             -2.673359         -0.951990          0.000000
H             -1.699863         -2.220676          0.000000

