6

O              0.000000         -0.009833          0.000000
H             -0.799571         -0.580965          0.000000
H              0.799571         -0.580965          0.000000
O             -3.601522         -2.568319          0.000000
H             -4.360137         -1.943813          0.000000
H             -3.946249         -3.488466          0.000000

