6

O              0.000000         -0.009833          0.000000
H             -0.799571         -0.580965          0.000000
H              0.799571         -0.580965          0.000000
O             -2.222380         -1.581075          0.000000
H             -2.844583         -0.820569          0.000000
H             -2.739994         -2.416288          0.000000

