6

O              0.000000         -0.009833          0.000000
H             -0.799571         -0.580965          0.000000
H              0.799571         -0.580965          0.000000
O             -2.088722         -1.495495          0.000000
H             -3.070748         -1.461856          0.000000
H             -1.802063         -2.435353          0.000000

