6

O              0.000000         -0.009833          0.000000
H             -0.799571         -0.580965          0.000000
H              0.799571         -0.580965          0.000000
O             -4.814108         -3.443710          0.000000
H             -5.792123         -3.538539          0.000000
H             -4.407225         -4.338110          0.000000

