6

O              0.000000         -0.009833          0.000000
H             -0.799571         -0.580965          0.000000
H              0.799571         -0.580965          0.000000
O             -2.206151         -1.569483          0.000000
H             -2.828354         -0.808977          0.000000
H             -2.723765         -2.404696          0.000000

