6

O              0.000000         -0.009833          0.000000
H             -0.799571         -0.580965          0.000000
H              0.799571         -0.580965          0.000000
O             -3.730940         -2.662275          0.000000
H             -4.564579         -2.142131          0.000000
H             -3.952614         -3.619546          0.000000

