6

O              0.000000         -0.009833          0.000000
H             -0.799571         -0.580965          0.000000
H              0.799571         -0.580965          0.000000
O             -1.972897         -1.415633          0.000000
H             -2.930167         -1.637307          0.000000
H             -1.452752         -2.249272          0.000000

