6

O              0.000000         -0.009833          0.000000
H             -0.799571         -0.580965          0.000000
H              0.799571         -0.580965          0.000000
O             -2.638282         -1.890915          0.000000
H             -3.595552         -2.112590          0.000000
H             -2.118137         -2.724555          0.000000

