6

O              0.000000         -0.009833          0.000000
H             -0.799571         -0.580965          0.000000
H              0.799571         -0.580965          0.000000
O             -4.263395         -3.048858          0.000000
H             -5.245421         -3.015220          0.000000
H             -3.976735         -3.988716          0.000000

