6

O              0.000000         -0.009833          0.000000
H             -0.799571         -0.580965          0.000000
H              0.799571         -0.580965          0.000000
O             -3.289138         -2.353697          0.000000
H             -4.271261         -2.384358          0.000000
H             -2.941622         -3.272794          0.000000

