6

O              0.000000         -0.009833          0.000000
H             -0.799571         -0.580965          0.000000
H              0.799571         -0.580965          0.000000
O             -3.763957         -2.683615          0.000000
H             -4.480104         -2.010830          0.000000
H             -4.168126         -3.579245          0.000000

