6

O              0.000000         -0.009833          0.000000
H             -0.799571         -0.580965          0.000000
H              0.799571         -0.580965          0.000000
O             -4.299178         -3.067402          0.000000
H             -5.097014         -2.493848          0.000000
H             -4.582986         -4.008125          0.000000

