6

O              0.000000         -0.009833          0.000000
H             -0.799571         -0.580965          0.000000
H              0.799571         -0.580965          0.000000
O             -4.892254         -3.502800          0.000000
H             -5.787884         -3.906969          0.000000
H             -4.219468         -4.218946          0.000000

