6

O              0.000000         -0.009833          0.000000
H             -0.799571         -0.580965          0.000000
H              0.799571         -0.580965          0.000000
O             -2.676810         -1.905015          0.000000
H             -3.247942         -1.105444          0.000000
H             -3.247942         -2.704587          0.000000

