6

O              0.000000         -0.009833          0.000000
H             -0.799571         -0.580965          0.000000
H              0.799571         -0.580965          0.000000
O             -4.607965         -3.285778          0.000000
H             -5.278576         -2.567595          0.000000
H             -5.069845         -4.153057          0.000000

