6

O              0.000000         -0.009833          0.000000
H             -0.799571         -0.580965          0.000000
H              0.799571         -0.580965          0.000000
O             -2.806557         -1.999037          0.000000
H             -3.477168         -1.280854          0.000000
H             -3.268438         -2.866316          0.000000

