6

O              0.000000         -0.009833          0.000000
H             -0.799571         -0.580965          0.000000
H              0.799571         -0.580965          0.000000
O             -3.754956         -2.691509          0.000000
H             -4.590169         -3.209124          0.000000
H             -2.994450         -3.313713          0.000000

