6

O              0.000000         -0.009833          0.000000
H             -0.799571         -0.580965          0.000000
H              0.799571         -0.580965          0.000000
O             -2.444689         -1.751239          0.000000
H             -3.422704         -1.846068          0.000000
H             -2.037805         -2.645640          0.000000

