6

O              0.000000         -0.009833          0.000000
H             -0.799571         -0.580965          0.000000
H              0.799571         -0.580965          0.000000
O             -1.978946         -1.407191          0.000000
H             -2.601150         -0.646685          0.000000
H             -2.496561         -2.242404          0.000000

