6

O              0.000000         -0.009833          0.000000
H             -0.799571         -0.580965          0.000000
H              0.799571         -0.580965          0.000000
O             -2.270898         -1.617127          0.000000
H             -2.987045         -0.944341          0.000000
H             -2.675067         -2.512757          0.000000

