6

O              0.000000         -0.009833          0.000000
H             -0.799571         -0.580965          0.000000
H              0.799571         -0.580965          0.000000
O             -4.867376         -3.472516          0.000000
H             -5.625991         -2.848009          0.000000
H             -5.212103         -4.392663          0.000000

