6

O              0.000000         -0.009833          0.000000
H             -0.799571         -0.580965          0.000000
H              0.799571         -0.580965          0.000000
O             -2.546957         -1.812920          0.000000
H             -3.169161         -1.052415          0.000000
H             -3.064572         -2.648133          0.000000

