6

O              0.000000         -0.009833          0.000000
H             -0.799571         -0.580965          0.000000
H              0.799571         -0.580965          0.000000
O             -3.114969         -2.218650          0.000000
H             -3.737173         -1.458144          0.000000
H             -3.632584         -3.053863          0.000000

