6

O              0.000000         -0.009833          0.000000
H             -0.799571         -0.580965          0.000000
H              0.799571         -0.580965          0.000000
O             -2.579101         -1.838007          0.000000
H             -3.337717         -1.213500          0.000000
H             -2.923828         -2.758153          0.000000

