6

O              0.000000         -0.009833          0.000000
H             -0.799571         -0.580965          0.000000
H              0.799571         -0.580965          0.000000
O             -4.411645         -3.150851          0.000000
H             -5.330742         -2.803335          0.000000
H             -4.442306         -4.132974          0.000000

