6

O              0.000000         -0.009833          0.000000
H             -0.799571         -0.580965          0.000000
H              0.799571         -0.580965          0.000000
O             -1.923608         -1.381082          0.000000
H             -2.864331         -1.664891          0.000000
H             -1.350054         -2.178918          0.000000

