6

O              0.000000         -0.009833          0.000000
H             -0.799571         -0.580965          0.000000
H              0.799571         -0.580965          0.000000
O             -2.845495         -2.042363          0.000000
H             -3.645066         -2.613495          0.000000
H             -2.045923         -2.613495          0.000000

