6

O              0.000000         -0.009833          0.000000
H             -0.799571         -0.580965          0.000000
H              0.799571         -0.580965          0.000000
O             -2.465645         -1.756234          0.000000
H             -3.181792         -1.083449          0.000000
H             -2.869814         -2.651864          0.000000

