6

O              0.000000         -0.009833          0.000000
H             -0.799571         -0.580965          0.000000
H              0.799571         -0.580965          0.000000
O             -3.921518         -2.806135          0.000000
H             -4.899533         -2.900965          0.000000
H             -3.514635         -3.700536          0.000000

