6

O              0.000000         -0.009833          0.000000
H             -0.799571         -0.580965          0.000000
H              0.799571         -0.580965          0.000000
O             -4.393226         -3.141596          0.000000
H             -5.375252         -3.107958          0.000000
H             -4.106566         -4.081454          0.000000

