6

O              0.000000         -0.009833          0.000000
H             -0.799571         -0.580965          0.000000
H              0.799571         -0.580965          0.000000
O             -2.448288         -1.747640          0.000000
H             -3.342688         -1.340757          0.000000
H             -2.543117         -2.725655          0.000000

