6

O              0.000000         -0.009833          0.000000
H             -0.799571         -0.580965          0.000000
H              0.799571         -0.580965          0.000000
O             -3.536606         -2.521950          0.000000
H             -4.295222         -1.897443          0.000000
H             -3.881333         -3.442097          0.000000

