6

O              0.000000         -0.009833          0.000000
H             -0.799571         -0.580965          0.000000
H              0.799571         -0.580965          0.000000
O             -1.991846         -1.425533          0.000000
H             -2.969569         -1.327739          0.000000
H             -1.767270         -2.382127          0.000000

