6

O              0.000000         -0.009833          0.000000
H             -0.799571         -0.580965          0.000000
H              0.799571         -0.580965          0.000000
O             -2.157464         -1.534706          0.000000
H             -2.779668         -0.774200          0.000000
H             -2.675079         -2.369919          0.000000

