6

O              0.000000         -0.009833          0.000000
H             -0.799571         -0.580965          0.000000
H              0.799571         -0.580965          0.000000
O             -1.701758         -1.214396          0.000000
H             -2.596159         -0.807513          0.000000
H             -1.796588         -2.192411          0.000000

