6

O              0.000000         -0.009833          0.000000
H             -0.799571         -0.580965          0.000000
H              0.799571         -0.580965          0.000000
O             -4.283450         -3.053293          0.000000
H             -4.905653         -2.292787          0.000000
H             -4.801065         -3.888506          0.000000

