6

O              0.000000         -0.009833          0.000000
H             -0.799571         -0.580965          0.000000
H              0.799571         -0.580965          0.000000
O             -4.185575         -2.986257          0.000000
H             -4.983411         -2.412703          0.000000
H             -4.469384         -3.926979          0.000000

