6

O              0.000000         -0.009833          0.000000
H             -0.799571         -0.580965          0.000000
H              0.799571         -0.580965          0.000000
O             -2.572764         -1.844773          0.000000
H             -3.513487         -2.128581          0.000000
H             -1.999210         -2.642609          0.000000

