6

O              0.000000         -0.009833          0.000000
H             -0.799571         -0.580965          0.000000
H              0.799571         -0.580965          0.000000
O             -2.635802         -1.891580          0.000000
H             -3.503081         -2.353461          0.000000
H             -1.917619         -2.562191          0.000000

