6

O              0.000000         -0.009833          0.000000
H             -0.799571         -0.580965          0.000000
H              0.799571         -0.580965          0.000000
O             -2.772526         -1.980032          0.000000
H             -3.691623         -1.632516          0.000000
H             -2.803187         -2.962155          0.000000

