6

O              0.000000         -0.009833          0.000000
H             -0.799571         -0.580965          0.000000
H              0.799571         -0.580965          0.000000
O             -3.609536         -2.587116          0.000000
H             -4.476815         -3.048996          0.000000
H             -2.891353         -3.257726          0.000000

