6

O              0.000000         -0.009833          0.000000
H             -0.799571         -0.580965          0.000000
H              0.799571         -0.580965          0.000000
O             -2.449521         -1.744007          0.000000
H             -3.120132         -1.025824          0.000000
H             -2.911402         -2.611286          0.000000

