6

O              0.000000         -0.009833          0.000000
H             -0.799571         -0.580965          0.000000
H              0.799571         -0.580965          0.000000
O             -1.682477         -1.206063          0.000000
H             -2.664600         -1.236724          0.000000
H             -1.334962         -2.125160          0.000000

