6

O              0.000000         -0.009833          0.000000
H             -0.799571         -0.580965          0.000000
H              0.799571         -0.580965          0.000000
O             -4.729330         -3.386982          0.000000
H             -5.596609         -3.848863          0.000000
H             -4.011147         -4.057593          0.000000

