6

O              0.000000         -0.009833          0.000000
H             -0.799571         -0.580965          0.000000
H              0.799571         -0.580965          0.000000
O             -3.714445         -2.651269          0.000000
H             -4.580319         -2.186761          0.000000
H             -3.873036         -3.620988          0.000000

