6

O              0.000000         -0.009833          0.000000
H             -0.799571         -0.580965          0.000000
H              0.799571         -0.580965          0.000000
O             -1.897634         -1.350505          0.000000
H             -2.613780         -0.677719          0.000000
H             -2.301803         -2.246135          0.000000

