6

O              0.000000         -0.009833          0.000000
H             -0.799571         -0.580965          0.000000
H              0.799571         -0.580965          0.000000
O             -2.586475         -1.856866          0.000000
H             -3.421689         -2.374481          0.000000
H             -1.825970         -2.479070          0.000000

