6

O              0.000000         -0.009833          0.000000
H             -0.799571         -0.580965          0.000000
H              0.799571         -0.580965          0.000000
O             -1.876677         -1.345510          0.000000
H             -2.854692         -1.440339          0.000000
H             -1.469794         -2.239910          0.000000

