6

O              0.000000         -0.009833          0.000000
H             -0.799571         -0.580965          0.000000
H              0.799571         -0.580965          0.000000
O             -2.040036         -1.460718          0.000000
H             -3.022061         -1.427079          0.000000
H             -1.753376         -2.400576          0.000000

