6

O              0.000000         -0.009833          0.000000
H             -0.799571         -0.580965          0.000000
H              0.799571         -0.580965          0.000000
O             -2.950261         -2.108567          0.000000
H             -3.906855         -1.883991          0.000000
H             -2.852467         -3.086290          0.000000

