6

O              0.000000         -0.009833          0.000000
H             -0.799571         -0.580965          0.000000
H              0.799571         -0.580965          0.000000
O             -2.869899         -2.049585          0.000000
H             -3.788996         -1.702070          0.000000
H             -2.900560         -3.031709          0.000000

