6

O              0.000000         -0.009833          0.000000
H             -0.799571         -0.580965          0.000000
H              0.799571         -0.580965          0.000000
O             -2.736809         -1.959900          0.000000
H             -3.714824         -2.054729          0.000000
H             -2.329926         -2.854301          0.000000

