6

O              0.000000         -0.009833          0.000000
H             -0.799571         -0.580965          0.000000
H              0.799571         -0.580965          0.000000
O             -4.039023         -2.883115          0.000000
H             -4.904897         -2.418606          0.000000
H             -4.197615         -3.852834          0.000000

