6

O              0.000000         -0.009833          0.000000
H             -0.799571         -0.580965          0.000000
H              0.799571         -0.580965          0.000000
O             -4.445571         -3.170490          0.000000
H             -5.161717         -2.497705          0.000000
H             -4.849740         -4.066121          0.000000

