6

O              0.000000         -0.009833          0.000000
H             -0.799571         -0.580965          0.000000
H              0.799571         -0.580965          0.000000
O             -3.261029         -2.322980          0.000000
H             -3.883233         -1.562474          0.000000
H             -3.778644         -3.158193          0.000000

