6

O              0.000000         -0.009833          0.000000
H             -0.799571         -0.580965          0.000000
H              0.799571         -0.580965          0.000000
O             -3.256680         -2.330513          0.000000
H             -4.238803         -2.361173          0.000000
H             -2.909164         -3.249610          0.000000

