6

O              0.000000         -0.009833          0.000000
H             -0.799571         -0.580965          0.000000
H              0.799571         -0.580965          0.000000
O             -4.650063         -3.328583          0.000000
H             -5.590786         -3.612391          0.000000
H             -4.076509         -4.126419          0.000000

