6

O              0.000000         -0.009833          0.000000
H             -0.799571         -0.580965          0.000000
H              0.799571         -0.580965          0.000000
O             -4.640423         -3.308963          0.000000
H             -5.311033         -2.590780          0.000000
H             -5.102303         -4.176241          0.000000

