6

O              0.000000         -0.009833          0.000000
H             -0.799571         -0.580965          0.000000
H              0.799571         -0.580965          0.000000
O             -4.083240         -2.922361          0.000000
H             -5.052959         -3.080953          0.000000
H             -3.618731         -3.788235          0.000000

