6

O              0.000000         -0.009833          0.000000
H             -0.799571         -0.580965          0.000000
H              0.799571         -0.580965          0.000000
O             -3.795590         -2.709230          0.000000
H             -4.661464         -2.244722          0.000000
H             -3.954181         -3.678949          0.000000

