6

O              0.000000         -0.009833          0.000000
H             -0.799571         -0.580965          0.000000
H              0.799571         -0.580965          0.000000
O             -2.165799         -1.555299          0.000000
H             -3.061429         -1.959468          0.000000
H             -1.493014         -2.271446          0.000000

