6

O              0.000000         -0.009833          0.000000
H             -0.799571         -0.580965          0.000000
H              0.799571         -0.580965          0.000000
O             -3.285593         -2.355166          0.000000
H             -4.181223         -2.759335          0.000000
H             -2.612808         -3.071312          0.000000

