6

O              0.000000         -0.009833          0.000000
H             -0.799571         -0.580965          0.000000
H              0.799571         -0.580965          0.000000
O             -2.359271         -1.694574          0.000000
H             -3.194484         -2.212189          0.000000
H             -1.598765         -2.316778          0.000000

