6

O              0.000000         -0.009833          0.000000
H             -0.799571         -0.580965          0.000000
H              0.799571         -0.580965          0.000000
O             -4.720637         -3.369990          0.000000
H             -5.586511         -2.905481          0.000000
H             -4.879228         -4.339709          0.000000

