6

O              0.000000         -0.009833          0.000000
H             -0.799571         -0.580965          0.000000
H              0.799571         -0.580965          0.000000
O             -3.325882         -2.369989          0.000000
H             -3.996493         -1.651806          0.000000
H             -3.787762         -3.237268          0.000000

