6

O              0.000000         -0.009833          0.000000
H             -0.799571         -0.580965          0.000000
H              0.799571         -0.580965          0.000000
O             -4.468385         -3.201590          0.000000
H             -5.267956         -3.772722          0.000000
H             -3.668813         -3.772722          0.000000

