6

O              0.000000         -0.009833          0.000000
H             -0.799571         -0.580965          0.000000
H              0.799571         -0.580965          0.000000
O             -2.084020         -1.497443          0.000000
H             -2.951298         -1.959324          0.000000
H             -1.365837         -2.168054          0.000000

