6

O              0.000000         -0.009833          0.000000
H             -0.799571         -0.580965          0.000000
H              0.799571         -0.580965          0.000000
O             -4.293028         -3.073553          0.000000
H             -5.233750         -3.357361          0.000000
H             -3.719474         -3.871389          0.000000

