6

O              0.000000         -0.009833          0.000000
H             -0.799571         -0.580965          0.000000
H              0.799571         -0.580965          0.000000
O             -3.546498         -2.540309          0.000000
H             -4.487220         -2.824117          0.000000
H             -2.972944         -3.338145          0.000000

