6

O              0.000000         -0.009833          0.000000
H             -0.799571         -0.580965          0.000000
H              0.799571         -0.580965          0.000000
O             -3.400438         -2.435978          0.000000
H             -4.341160         -2.719787          0.000000
H             -2.826884         -3.233814          0.000000

