6

O              0.000000         -0.009833          0.000000
H             -0.799571         -0.580965          0.000000
H              0.799571         -0.580965          0.000000
O             -3.859487         -2.757237          0.000000
H             -4.799345         -2.470577          0.000000
H             -3.825849         -3.739262          0.000000

