6

O              0.000000         -0.009833          0.000000
H             -0.799571         -0.580965          0.000000
H              0.799571         -0.580965          0.000000
O             -1.815361         -1.295542          0.000000
H             -2.709761         -0.888659          0.000000
H             -1.910190         -2.273557          0.000000

