6

O              0.000000         -0.009833          0.000000
H             -0.799571         -0.580965          0.000000
H              0.799571         -0.580965          0.000000
O             -2.319252         -1.653146          0.000000
H             -3.117088         -1.079592          0.000000
H             -2.603060         -2.593869          0.000000

