6

O              0.000000         -0.009833          0.000000
H             -0.799571         -0.580965          0.000000
H              0.799571         -0.580965          0.000000
O             -3.306857         -2.364067          0.000000
H             -4.276090         -2.202536          0.000000
H             -3.145326         -3.333300          0.000000

