6

O              0.000000         -0.009833          0.000000
H             -0.799571         -0.580965          0.000000
H              0.799571         -0.580965          0.000000
O             -4.575256         -3.263855          0.000000
H             -5.333871         -2.639348          0.000000
H             -4.919983         -4.184002          0.000000

