6

O              0.000000         -0.009833          0.000000
H             -0.799571         -0.580965          0.000000
H              0.799571         -0.580965          0.000000
O             -4.746821         -3.398323          0.000000
H             -5.666967         -3.743050          0.000000
H             -4.122314         -4.156939          0.000000

