6

O              0.000000         -0.009833          0.000000
H             -0.799571         -0.580965          0.000000
H              0.799571         -0.580965          0.000000
O             -3.568385         -2.546939          0.000000
H             -4.434259         -2.082430          0.000000
H             -3.726976         -3.516658          0.000000

