6

O              0.000000         -0.009833          0.000000
H             -0.799571         -0.580965          0.000000
H              0.799571         -0.580965          0.000000
O             -4.600761         -3.293993          0.000000
H             -5.520907         -3.638720          0.000000
H             -3.976254         -4.052608          0.000000

