6

O              0.000000         -0.009833          0.000000
H             -0.799571         -0.580965          0.000000
H              0.799571         -0.580965          0.000000
O             -3.821773         -2.737564          0.000000
H             -4.741920         -3.082291          0.000000
H             -3.197267         -3.496180          0.000000

