6

O              0.000000         -0.009833          0.000000
H             -0.799571         -0.580965          0.000000
H              0.799571         -0.580965          0.000000
O             -2.887786         -2.055715          0.000000
H             -3.458918         -1.256143          0.000000
H             -3.458918         -2.855286          0.000000

