6

O              0.000000         -0.009833          0.000000
H             -0.799571         -0.580965          0.000000
H              0.799571         -0.580965          0.000000
O             -4.007244         -2.858126          0.000000
H             -4.765860         -2.233619          0.000000
H             -4.351971         -3.778272          0.000000

