6

O              0.000000         -0.009833          0.000000
H             -0.799571         -0.580965          0.000000
H              0.799571         -0.580965          0.000000
O             -3.708171         -2.656418          0.000000
H             -4.628318         -3.001145          0.000000
H             -3.083664         -3.415034          0.000000

