6

O              0.000000         -0.009833          0.000000
H             -0.799571         -0.580965          0.000000
H              0.799571         -0.580965          0.000000
O             -2.236972         -1.597487          0.000000
H             -3.156069         -1.249972          0.000000
H             -2.267633         -2.579610          0.000000

