6

O              0.000000         -0.009833          0.000000
H             -0.799571         -0.580965          0.000000
H              0.799571         -0.580965          0.000000
O             -2.997541         -2.144662          0.000000
H             -3.979566         -2.111023          0.000000
H             -2.710881         -3.084519          0.000000

