6

O              0.000000         -0.009833          0.000000
H             -0.799571         -0.580965          0.000000
H              0.799571         -0.580965          0.000000
O             -1.962403         -1.397501          0.000000
H             -2.721019         -0.772994          0.000000
H             -2.307130         -2.317647          0.000000

