6

O              0.000000         -0.009833          0.000000
H             -0.799571         -0.580965          0.000000
H              0.799571         -0.580965          0.000000
O             -1.859295         -1.334487          0.000000
H             -2.816565         -1.556161          0.000000
H             -1.339150         -2.168127          0.000000

