6

O              0.000000         -0.009833          0.000000
H             -0.799571         -0.580965          0.000000
H              0.799571         -0.580965          0.000000
O             -2.283966         -1.634194          0.000000
H             -3.261690         -1.536400          0.000000
H             -2.059390         -2.590788          0.000000

