6

O              0.000000         -0.009833          0.000000
H             -0.799571         -0.580965          0.000000
H              0.799571         -0.580965          0.000000
O             -3.032188         -2.165508          0.000000
H             -3.951285         -1.817993          0.000000
H             -3.062849         -3.147631          0.000000

