6

O              0.000000         -0.009833          0.000000
H             -0.799571         -0.580965          0.000000
H              0.799571         -0.580965          0.000000
O             -4.118302         -2.943680          0.000000
H             -5.087535         -2.782149          0.000000
H             -3.956771         -3.912913          0.000000

