6

O              0.000000         -0.009833          0.000000
H             -0.799571         -0.580965          0.000000
H              0.799571         -0.580965          0.000000
O             -4.412780         -3.148548          0.000000
H             -5.210616         -2.574994          0.000000
H             -4.696588         -4.089271          0.000000

