6

O              0.000000         -0.009833          0.000000
H             -0.799571         -0.580965          0.000000
H              0.799571         -0.580965          0.000000
O             -3.991015         -2.846534          0.000000
H             -4.749631         -2.222027          0.000000
H             -4.335742         -3.766680          0.000000

