6

O              0.000000         -0.009833          0.000000
H             -0.799571         -0.580965          0.000000
H              0.799571         -0.580965          0.000000
O             -4.586336         -3.281722          0.000000
H             -5.556055         -3.440313          0.000000
H             -4.121827         -4.147596          0.000000

