6

O              0.000000         -0.009833          0.000000
H             -0.799571         -0.580965          0.000000
H              0.799571         -0.580965          0.000000
O             -2.302228         -1.643310          0.000000
H             -3.196628         -1.236427          0.000000
H             -2.397057         -2.621325          0.000000

