6

O              0.000000         -0.009833          0.000000
H             -0.799571         -0.580965          0.000000
H              0.799571         -0.580965          0.000000
O             -2.949821         -2.109037          0.000000
H             -3.919055         -1.947506          0.000000
H             -2.788290         -3.078270          0.000000

