6

O              0.000000         -0.009833          0.000000
H             -0.799571         -0.580965          0.000000
H              0.799571         -0.580965          0.000000
O             -4.087710         -2.917891          0.000000
H             -4.953584         -2.453383          0.000000
H             -4.246301         -3.887610          0.000000

