6

O              0.000000         -0.009833          0.000000
H             -0.799571         -0.580965          0.000000
H              0.799571         -0.580965          0.000000
O             -3.110073         -2.226522          0.000000
H             -4.088089         -2.321351          0.000000
H             -2.703190         -3.120923          0.000000

