6

O              0.000000         -0.009833          0.000000
H             -0.799571         -0.580965          0.000000
H              0.799571         -0.580965          0.000000
O             -3.220678         -2.308796          0.000000
H             -4.116308         -2.712966          0.000000
H             -2.547892         -3.024943          0.000000

