6

O              0.000000         -0.009833          0.000000
H             -0.799571         -0.580965          0.000000
H              0.799571         -0.580965          0.000000
O             -4.763050         -3.409915          0.000000
H             -5.683196         -3.754642          0.000000
H             -4.138543         -4.168531          0.000000

