6

O              0.000000         -0.009833          0.000000
H             -0.799571         -0.580965          0.000000
H              0.799571         -0.580965          0.000000
O             -2.787062         -1.993554          0.000000
H             -3.764786         -1.895760          0.000000
H             -2.562486         -2.950148          0.000000

