6

O              0.000000         -0.009833          0.000000
H             -0.799571         -0.580965          0.000000
H              0.799571         -0.580965          0.000000
O             -4.827965         -3.456285          0.000000
H             -5.748112         -3.801011          0.000000
H             -4.203459         -4.214900          0.000000

