6

O              0.000000         -0.009833          0.000000
H             -0.799571         -0.580965          0.000000
H              0.799571         -0.580965          0.000000
O             -2.004753         -1.439044          0.000000
H             -2.945475         -1.722852          0.000000
H             -1.431199         -2.236880          0.000000

