6

O              0.000000         -0.009833          0.000000
H             -0.799571         -0.580965          0.000000
H              0.799571         -0.580965          0.000000
O             -4.137076         -2.950864          0.000000
H             -4.895691         -2.326357          0.000000
H             -4.481802         -3.871011          0.000000

