6

O              0.000000         -0.009833          0.000000
H             -0.799571         -0.580965          0.000000
H              0.799571         -0.580965          0.000000
O             -2.671893         -1.913531          0.000000
H             -3.649908         -2.008360          0.000000
H             -2.265010         -2.807931          0.000000

