6

O              0.000000         -0.009833          0.000000
H             -0.799571         -0.580965          0.000000
H              0.799571         -0.580965          0.000000
O             -2.122147         -1.517831          0.000000
H             -3.091381         -1.356300          0.000000
H             -1.960616         -2.487065          0.000000

