6

O              0.000000         -0.009833          0.000000
H             -0.799571         -0.580965          0.000000
H              0.799571         -0.580965          0.000000
O             -2.120657         -1.519054          0.000000
H             -3.102780         -1.549715          0.000000
H             -1.773142         -2.438151          0.000000

