6

O              0.000000         -0.009833          0.000000
H             -0.799571         -0.580965          0.000000
H              0.799571         -0.580965          0.000000
O             -3.926414         -2.798263          0.000000
H             -4.548617         -2.037757          0.000000
H             -4.444029         -3.633476          0.000000

