6

O              0.000000         -0.009833          0.000000
H             -0.799571         -0.580965          0.000000
H              0.799571         -0.580965          0.000000
O             -3.629945         -2.597135          0.000000
H             -4.612068         -2.627796          0.000000
H             -3.282429         -3.516232          0.000000

