6

O              0.000000         -0.009833          0.000000
H             -0.799571         -0.580965          0.000000
H              0.799571         -0.580965          0.000000
O             -3.236272         -2.320494          0.000000
H             -4.103550         -2.782374          0.000000
H             -2.518088         -2.991105          0.000000

