6

O              0.000000         -0.009833          0.000000
H             -0.799571         -0.580965          0.000000
H              0.799571         -0.580965          0.000000
O             -2.904014         -2.067307          0.000000
H             -3.475146         -1.267735          0.000000
H             -3.475146         -2.866878          0.000000

