6

O              0.000000         -0.009833          0.000000
H             -0.799571         -0.580965          0.000000
H              0.799571         -0.580965          0.000000
O             -4.096403         -2.934884          0.000000
H             -4.963682         -3.396764          0.000000
H             -3.378220         -3.605495          0.000000

