6

O              0.000000         -0.009833          0.000000
H             -0.799571         -0.580965          0.000000
H              0.799571         -0.580965          0.000000
O             -3.421307         -2.444246          0.000000
H             -4.361165         -2.157586          0.000000
H             -3.387668         -3.426271          0.000000

