6

O              0.000000         -0.009833          0.000000
H             -0.799571         -0.580965          0.000000
H              0.799571         -0.580965          0.000000
O             -4.037157         -2.885719          0.000000
H             -5.006391         -2.724187          0.000000
H             -3.875626         -3.854952          0.000000

