6

O              0.000000         -0.009833          0.000000
H             -0.799571         -0.580965          0.000000
H              0.799571         -0.580965          0.000000
O             -3.220043         -2.308901          0.000000
H             -4.087321         -2.770782          0.000000
H             -2.501859         -2.979512          0.000000

