6

O              0.000000         -0.009833          0.000000
H             -0.799571         -0.580965          0.000000
H              0.799571         -0.580965          0.000000
O             -2.861723         -2.053956          0.000000
H             -3.661295         -2.625088          0.000000
H             -2.062152         -2.625088          0.000000

