6

O              0.000000         -0.009833          0.000000
H             -0.799571         -0.580965          0.000000
H              0.799571         -0.580965          0.000000
O             -4.078891         -2.923375          0.000000
H             -4.878462         -3.494507          0.000000
H             -3.279319         -3.494507          0.000000

