6

O              0.000000         -0.009833          0.000000
H             -0.799571         -0.580965          0.000000
H              0.799571         -0.580965          0.000000
O             -4.897289         -3.500109          0.000000
H             -5.866522         -3.338577          0.000000
H             -4.735758         -4.469342          0.000000

