6

O              0.000000         -0.009833          0.000000
H             -0.799571         -0.580965          0.000000
H              0.799571         -0.580965          0.000000
O             -3.601857         -2.565774          0.000000
H             -4.172989         -1.766203          0.000000
H             -4.172989         -3.365346          0.000000

