6

O              0.000000         -0.009833          0.000000
H             -0.799571         -0.580965          0.000000
H              0.799571         -0.580965          0.000000
O             -3.530269         -2.528717          0.000000
H             -4.470992         -2.812525          0.000000
H             -2.956715         -3.326552          0.000000

