6

O              0.000000         -0.009833          0.000000
H             -0.799571         -0.580965          0.000000
H              0.799571         -0.580965          0.000000
O             -4.719619         -3.371627          0.000000
H             -5.659477         -3.084967          0.000000
H             -4.685980         -4.353652          0.000000

