6

O              0.000000         -0.009833          0.000000
H             -0.799571         -0.580965          0.000000
H              0.799571         -0.580965          0.000000
O             -3.794947         -2.710344          0.000000
H             -4.714044         -2.362829          0.000000
H             -3.825608         -3.692468          0.000000

