6

O              0.000000         -0.009833          0.000000
H             -0.799571         -0.580965          0.000000
H              0.799571         -0.580965          0.000000
O             -4.295330         -3.072418          0.000000
H             -5.277453         -3.103078          0.000000
H             -3.947814         -3.991515          0.000000

