6

O              0.000000         -0.009833          0.000000
H             -0.799571         -0.580965          0.000000
H              0.799571         -0.580965          0.000000
O             -4.647546         -3.329084          0.000000
H             -5.482759         -3.846698          0.000000
H             -3.887040         -3.951287          0.000000

