6

O              0.000000         -0.009833          0.000000
H             -0.799571         -0.580965          0.000000
H              0.799571         -0.580965          0.000000
O             -3.390359         -2.418236          0.000000
H             -4.188195         -1.844682          0.000000
H             -3.674168         -3.358958          0.000000

