6

O              0.000000         -0.009833          0.000000
H             -0.799571         -0.580965          0.000000
H              0.799571         -0.580965          0.000000
O             -2.920159         -2.080183          0.000000
H             -3.590770         -1.362000          0.000000
H             -3.382040         -2.947461          0.000000

