6

O              0.000000         -0.009833          0.000000
H             -0.799571         -0.580965          0.000000
H              0.799571         -0.580965          0.000000
O             -1.891753         -1.357671          0.000000
H             -2.849023         -1.579346          0.000000
H             -1.371608         -2.191311          0.000000

