6

O              0.000000         -0.009833          0.000000
H             -0.799571         -0.580965          0.000000
H              0.799571         -0.580965          0.000000
O             -3.892660         -2.779352          0.000000
H             -4.787060         -2.372468          0.000000
H             -3.987489         -3.757367          0.000000

