6

O              0.000000         -0.009833          0.000000
H             -0.799571         -0.580965          0.000000
H              0.799571         -0.580965          0.000000
O             -1.683497         -1.205280          0.000000
H             -2.661220         -1.107486          0.000000
H             -1.458921         -2.161874          0.000000

