6

O              0.000000         -0.009833          0.000000
H             -0.799571         -0.580965          0.000000
H              0.799571         -0.580965          0.000000
O             -2.880497         -2.065213          0.000000
H             -3.800644         -2.409940          0.000000
H             -2.255991         -2.823828          0.000000

