6

O              0.000000         -0.009833          0.000000
H             -0.799571         -0.580965          0.000000
H              0.799571         -0.580965          0.000000
O             -4.391003         -3.142880          0.000000
H             -5.348273         -3.364554          0.000000
H             -3.870858         -3.976520          0.000000

