6

O              0.000000         -0.009833          0.000000
H             -0.799571         -0.580965          0.000000
H              0.799571         -0.580965          0.000000
O             -1.759442         -1.265597          0.000000
H             -2.626720         -1.727478          0.000000
H             -1.041259         -1.936208          0.000000

