6

O              0.000000         -0.009833          0.000000
H             -0.799571         -0.580965          0.000000
H              0.799571         -0.580965          0.000000
O             -2.966490         -2.120159          0.000000
H             -3.923084         -1.895583          0.000000
H             -2.868696         -3.097882          0.000000

