6

O              0.000000         -0.009833          0.000000
H             -0.799571         -0.580965          0.000000
H              0.799571         -0.580965          0.000000
O             -4.364594         -3.111254          0.000000
H             -4.986798         -2.350748          0.000000
H             -4.882209         -3.946467          0.000000

