6

O              0.000000         -0.009833          0.000000
H             -0.799571         -0.580965          0.000000
H              0.799571         -0.580965          0.000000
O             -4.716167         -3.374460          0.000000
H             -5.685886         -3.533051          0.000000
H             -4.251658         -4.240334          0.000000

