6

O              0.000000         -0.009833          0.000000
H             -0.799571         -0.580965          0.000000
H              0.799571         -0.580965          0.000000
O             -1.745692         -1.253341          0.000000
H             -2.702963         -1.475015          0.000000
H             -1.225548         -2.086981          0.000000

