6

O              0.000000         -0.009833          0.000000
H             -0.799571         -0.580965          0.000000
H              0.799571         -0.580965          0.000000
O             -3.423255         -2.439543          0.000000
H             -4.093866         -1.721360          0.000000
H             -3.885136         -3.306822          0.000000

