6

O              0.000000         -0.009833          0.000000
H             -0.799571         -0.580965          0.000000
H              0.799571         -0.580965          0.000000
O             -2.991555         -2.146694          0.000000
H             -3.791126         -2.717826          0.000000
H             -2.191983         -2.717826          0.000000

