6

O              0.000000         -0.009833          0.000000
H             -0.799571         -0.580965          0.000000
H              0.799571         -0.580965          0.000000
O             -3.583971         -2.559645          0.000000
H             -4.503068         -2.212130          0.000000
H             -3.614632         -3.541768          0.000000

