6

O              0.000000         -0.009833          0.000000
H             -0.799571         -0.580965          0.000000
H              0.799571         -0.580965          0.000000
O             -4.517714         -3.236345          0.000000
H             -5.352927         -3.753960          0.000000
H             -3.757208         -3.858549          0.000000

