6

O              0.000000         -0.009833          0.000000
H             -0.799571         -0.580965          0.000000
H              0.799571         -0.580965          0.000000
O             -2.624276         -1.878040          0.000000
H             -3.606302         -1.844401          0.000000
H             -2.337616         -2.817897          0.000000

