6

O              0.000000         -0.009833          0.000000
H             -0.799571         -0.580965          0.000000
H              0.799571         -0.580965          0.000000
O             -2.439772         -1.752557          0.000000
H             -3.239343         -2.323689          0.000000
H             -1.640201         -2.323689          0.000000

