6

O              0.000000         -0.009833          0.000000
H             -0.799571         -0.580965          0.000000
H              0.799571         -0.580965          0.000000
O             -4.180027         -2.992181          0.000000
H             -5.137298         -3.213855          0.000000
H             -3.659882         -3.825820          0.000000

