6

O              0.000000         -0.009833          0.000000
H             -0.799571         -0.580965          0.000000
H              0.799571         -0.580965          0.000000
O             -4.354782         -3.120444          0.000000
H             -5.154353         -3.691576          0.000000
H             -3.555211         -3.691576          0.000000

