6

O              0.000000         -0.009833          0.000000
H             -0.799571         -0.580965          0.000000
H              0.799571         -0.580965          0.000000
O             -3.682480         -2.626896          0.000000
H             -4.480316         -2.053343          0.000000
H             -3.966288         -3.567619          0.000000

