6

O              0.000000         -0.009833          0.000000
H             -0.799571         -0.580965          0.000000
H              0.799571         -0.580965          0.000000
O             -3.419990         -2.445652          0.000000
H             -4.397713         -2.347858          0.000000
H             -3.195413         -3.402246          0.000000

