6

O              0.000000         -0.009833          0.000000
H             -0.799571         -0.580965          0.000000
H              0.799571         -0.580965          0.000000
O             -3.969638         -2.841216          0.000000
H             -4.939357         -2.999807          0.000000
H             -3.505129         -3.707090          0.000000

