6

O              0.000000         -0.009833          0.000000
H             -0.799571         -0.580965          0.000000
H              0.799571         -0.580965          0.000000
O             -4.635023         -3.316498          0.000000
H             -5.604742         -3.475090          0.000000
H             -4.170514         -4.182372          0.000000

