6

O              0.000000         -0.009833          0.000000
H             -0.799571         -0.580965          0.000000
H              0.799571         -0.580965          0.000000
O             -2.400730         -1.709865          0.000000
H             -3.116876         -1.037080          0.000000
H             -2.804899         -2.605495          0.000000

