6

O              0.000000         -0.009833          0.000000
H             -0.799571         -0.580965          0.000000
H              0.799571         -0.580965          0.000000
O             -2.221879         -1.583593          0.000000
H             -3.019715         -1.010039          0.000000
H             -2.505687         -2.524315          0.000000

