6

O              0.000000         -0.009833          0.000000
H             -0.799571         -0.580965          0.000000
H              0.799571         -0.580965          0.000000
O             -3.532025         -2.527921          0.000000
H             -4.510040         -2.622750          0.000000
H             -3.125142         -3.422321          0.000000

