6

O              0.000000         -0.009833          0.000000
H             -0.799571         -0.580965          0.000000
H              0.799571         -0.580965          0.000000
O             -3.129562         -2.235062          0.000000
H             -4.048659         -1.887546          0.000000
H             -3.160223         -3.217185          0.000000

