6

O              0.000000         -0.009833          0.000000
H             -0.799571         -0.580965          0.000000
H              0.799571         -0.580965          0.000000
O             -3.114801         -2.219925          0.000000
H             -3.830948         -1.547139          0.000000
H             -3.518970         -3.115555          0.000000

