6

O              0.000000         -0.009833          0.000000
H             -0.799571         -0.580965          0.000000
H              0.799571         -0.580965          0.000000
O             -4.487158         -3.212847          0.000000
H             -5.407305         -3.557574          0.000000
H             -3.862651         -3.971462          0.000000

