6

O              0.000000         -0.009833          0.000000
H             -0.799571         -0.580965          0.000000
H              0.799571         -0.580965          0.000000
O             -2.657231         -1.900816          0.000000
H             -3.634954         -1.803022          0.000000
H             -2.432655         -2.857410          0.000000

