6

O              0.000000         -0.009833          0.000000
H             -0.799571         -0.580965          0.000000
H              0.799571         -0.580965          0.000000
O             -3.161645         -2.258769          0.000000
H             -4.101503         -1.972110          0.000000
H             -3.128006         -3.240795          0.000000

