6

O              0.000000         -0.009833          0.000000
H             -0.799571         -0.580965          0.000000
H              0.799571         -0.580965          0.000000
O             -4.850468         -3.462728          0.000000
H             -5.716342         -2.998219          0.000000
H             -5.009059         -4.432447          0.000000

