6

O              0.000000         -0.009833          0.000000
H             -0.799571         -0.580965          0.000000
H              0.799571         -0.580965          0.000000
O             -2.871035         -2.047283          0.000000
H             -3.668871         -1.473729          0.000000
H             -3.154843         -2.988006          0.000000

