6

O              0.000000         -0.009833          0.000000
H             -0.799571         -0.580965          0.000000
H              0.799571         -0.580965          0.000000
O             -3.999665         -2.865225          0.000000
H             -4.895295         -3.269394          0.000000
H             -3.326879         -3.581372          0.000000

