6

O              0.000000         -0.009833          0.000000
H             -0.799571         -0.580965          0.000000
H              0.799571         -0.580965          0.000000
O             -4.731810         -3.386318          0.000000
H             -5.689080         -3.607992          0.000000
H             -4.211665         -4.219957          0.000000

