6

O              0.000000         -0.009833          0.000000
H             -0.799571         -0.580965          0.000000
H              0.799571         -0.580965          0.000000
O             -2.788755         -1.991624          0.000000
H             -3.707852         -1.644109          0.000000
H             -2.819416         -2.973747          0.000000

