6

O              0.000000         -0.009833          0.000000
H             -0.799571         -0.580965          0.000000
H              0.799571         -0.580965          0.000000
O             -3.455713         -2.462727          0.000000
H             -4.126324         -1.744544          0.000000
H             -3.917594         -3.330006          0.000000

