6

O              0.000000         -0.009833          0.000000
H             -0.799571         -0.580965          0.000000
H              0.799571         -0.580965          0.000000
O             -2.670740         -1.914100          0.000000
H             -3.628010         -2.135774          0.000000
H             -2.150595         -2.747740          0.000000

