6

O              0.000000         -0.009833          0.000000
H             -0.799571         -0.580965          0.000000
H              0.799571         -0.580965          0.000000
O             -2.513204         -1.794009          0.000000
H             -3.407604         -1.387126          0.000000
H             -2.608033         -2.772024          0.000000

