6

O              0.000000         -0.009833          0.000000
H             -0.799571         -0.580965          0.000000
H              0.799571         -0.580965          0.000000
O             -2.432362         -1.735480          0.000000
H             -3.298236         -1.270972          0.000000
H             -2.590954         -2.705199          0.000000

