6

O              0.000000         -0.009833          0.000000
H             -0.799571         -0.580965          0.000000
H              0.799571         -0.580965          0.000000
O             -3.675087         -2.633380          0.000000
H             -4.570717         -3.037549          0.000000
H             -3.002301         -3.349526          0.000000

