6

O              0.000000         -0.009833          0.000000
H             -0.799571         -0.580965          0.000000
H              0.799571         -0.580965          0.000000
O             -2.999731         -2.142324          0.000000
H             -3.918827         -1.794808          0.000000
H             -3.030391         -3.124447          0.000000

