6

O              0.000000         -0.009833          0.000000
H             -0.799571         -0.580965          0.000000
H              0.799571         -0.580965          0.000000
O             -2.703198         -1.937284          0.000000
H             -3.660468         -2.158959          0.000000
H             -2.183053         -2.770924          0.000000

