6

O              0.000000         -0.009833          0.000000
H             -0.799571         -0.580965          0.000000
H              0.799571         -0.580965          0.000000
O             -3.873378         -2.771019          0.000000
H             -4.855501         -2.801680          0.000000
H             -3.525863         -3.690116          0.000000

