6

O              0.000000         -0.009833          0.000000
H             -0.799571         -0.580965          0.000000
H              0.799571         -0.580965          0.000000
O             -2.447165         -1.749207          0.000000
H             -3.403759         -1.524631          0.000000
H             -2.349371         -2.726930          0.000000

