6

O              0.000000         -0.009833          0.000000
H             -0.799571         -0.580965          0.000000
H              0.799571         -0.580965          0.000000
O             -3.211349         -2.291909          0.000000
H             -4.077223         -1.827400          0.000000
H             -3.369941         -3.261628          0.000000

