6

O              0.000000         -0.009833          0.000000
H             -0.799571         -0.580965          0.000000
H              0.799571         -0.580965          0.000000
O             -4.744276         -3.398658          0.000000
H             -5.543847         -3.969790          0.000000
H             -3.944704         -3.969790          0.000000

