6

O              0.000000         -0.009833          0.000000
H             -0.799571         -0.580965          0.000000
H              0.799571         -0.580965          0.000000
O             -4.039289         -2.882528          0.000000
H             -4.872929         -2.362384          0.000000
H             -4.260963         -3.839799          0.000000

