6

O              0.000000         -0.009833          0.000000
H             -0.799571         -0.580965          0.000000
H              0.799571         -0.580965          0.000000
O             -3.176058         -2.272177          0.000000
H             -4.158084         -2.238538          0.000000
H             -2.889399         -3.212034          0.000000

