6

O              0.000000         -0.009833          0.000000
H             -0.799571         -0.580965          0.000000
H              0.799571         -0.580965          0.000000
O             -3.709389         -2.656005          0.000000
H             -4.666659         -2.877679          0.000000
H             -3.189244         -3.489645          0.000000

