6

O              0.000000         -0.009833          0.000000
H             -0.799571         -0.580965          0.000000
H              0.799571         -0.580965          0.000000
O             -3.012700         -2.156969          0.000000
H             -3.990715         -2.251798          0.000000
H             -2.605817         -3.051369          0.000000

