6

O              0.000000         -0.009833          0.000000
H             -0.799571         -0.580965          0.000000
H              0.799571         -0.580965          0.000000
O             -3.663423         -2.619536          0.000000
H             -4.641146         -2.521742          0.000000
H             -3.438847         -3.576130          0.000000

