6

O              0.000000         -0.009833          0.000000
H             -0.799571         -0.580965          0.000000
H              0.799571         -0.580965          0.000000
O             -1.839946         -1.323622          0.000000
H             -2.675159         -1.841237          0.000000
H             -1.079440         -1.945825          0.000000

