6

O              0.000000         -0.009833          0.000000
H             -0.799571         -0.580965          0.000000
H              0.799571         -0.580965          0.000000
O             -2.448591         -1.747073          0.000000
H             -3.314465         -1.282564          0.000000
H             -2.607182         -2.716792          0.000000

