6

O              0.000000         -0.009833          0.000000
H             -0.799571         -0.580965          0.000000
H              0.799571         -0.580965          0.000000
O             -3.063423         -2.190183          0.000000
H             -4.032657         -2.028652          0.000000
H             -2.901892         -3.159416          0.000000

