6

O              0.000000         -0.009833          0.000000
H             -0.799571         -0.580965          0.000000
H              0.799571         -0.580965          0.000000
O             -4.900148         -3.493799          0.000000
H             -5.522351         -2.733293          0.000000
H             -5.417762         -4.329012          0.000000

