6

O              0.000000         -0.009833          0.000000
H             -0.799571         -0.580965          0.000000
H              0.799571         -0.580965          0.000000
O             -2.234783         -1.599825          0.000000
H             -3.216808         -1.566187          0.000000
H             -1.948123         -2.539683          0.000000

