6

O              0.000000         -0.009833          0.000000
H             -0.799571         -0.580965          0.000000
H              0.799571         -0.580965          0.000000
O             -2.932625         -2.098293          0.000000
H             -3.914651         -2.064654          0.000000
H             -2.645966         -3.038150          0.000000

