6

O              0.000000         -0.009833          0.000000
H             -0.799571         -0.580965          0.000000
H              0.799571         -0.580965          0.000000
O             -2.367712         -1.688525          0.000000
H             -3.201352         -1.168380          0.000000
H             -2.589387         -2.645796          0.000000

