6

O              0.000000         -0.009833          0.000000
H             -0.799571         -0.580965          0.000000
H              0.799571         -0.580965          0.000000
O             -2.363544         -1.693278          0.000000
H             -3.341559         -1.788107          0.000000
H             -1.956661         -2.587678          0.000000

