6

O              0.000000         -0.009833          0.000000
H             -0.799571         -0.580965          0.000000
H              0.799571         -0.580965          0.000000
O             -2.868207         -2.051515          0.000000
H             -3.845930         -1.953721          0.000000
H             -2.643631         -3.008109          0.000000

