6

O              0.000000         -0.009833          0.000000
H             -0.799571         -0.580965          0.000000
H              0.799571         -0.580965          0.000000
O             -2.933592         -2.097445          0.000000
H             -3.902826         -1.935913          0.000000
H             -2.772061         -3.066678          0.000000

