6

O              0.000000         -0.009833          0.000000
H             -0.799571         -0.580965          0.000000
H              0.799571         -0.580965          0.000000
O             -4.018892         -2.875689          0.000000
H             -4.996907         -2.970518          0.000000
H             -3.612009         -3.770089          0.000000

