6

O              0.000000         -0.009833          0.000000
H             -0.799571         -0.580965          0.000000
H              0.799571         -0.580965          0.000000
O             -1.849115         -1.314453          0.000000
H             -2.471318         -0.553947          0.000000
H             -2.366730         -2.149666          0.000000

