6

O              0.000000         -0.009833          0.000000
H             -0.799571         -0.580965          0.000000
H              0.799571         -0.580965          0.000000
O             -2.837067         -2.026924          0.000000
H             -3.776924         -1.740264          0.000000
H             -2.803428         -3.008950          0.000000

