6

O              0.000000         -0.009833          0.000000
H             -0.799571         -0.580965          0.000000
H              0.799571         -0.580965          0.000000
O             -4.680003         -3.352268          0.000000
H             -5.515216         -3.869883          0.000000
H             -3.919497         -3.974472          0.000000

