6

O              0.000000         -0.009833          0.000000
H             -0.799571         -0.580965          0.000000
H              0.799571         -0.580965          0.000000
O             -3.098239         -2.209575          0.000000
H             -3.896075         -1.636021          0.000000
H             -3.382048         -3.150298          0.000000

