6

O              0.000000         -0.009833          0.000000
H             -0.799571         -0.580965          0.000000
H              0.799571         -0.580965          0.000000
O             -3.105800         -2.227819          0.000000
H             -3.941013         -2.745433          0.000000
H             -2.345294         -2.850022          0.000000

