6

O              0.000000         -0.009833          0.000000
H             -0.799571         -0.580965          0.000000
H              0.799571         -0.580965          0.000000
O             -4.161319         -2.981253          0.000000
H             -5.028597         -3.443133          0.000000
H             -3.443135         -3.651863          0.000000

