6

O              0.000000         -0.009833          0.000000
H             -0.799571         -0.580965          0.000000
H              0.799571         -0.580965          0.000000
O             -4.786232         -3.414555          0.000000
H             -5.544847         -2.790048          0.000000
H             -5.130958         -4.334701          0.000000

