6

O              0.000000         -0.009833          0.000000
H             -0.799571         -0.580965          0.000000
H              0.799571         -0.580965          0.000000
O             -3.179821         -2.265659          0.000000
H             -3.850432         -1.547476          0.000000
H             -3.641702         -3.132938          0.000000

