6

O              0.000000         -0.009833          0.000000
H             -0.799571         -0.580965          0.000000
H              0.799571         -0.580965          0.000000
O             -2.121180         -1.518679          0.000000
H             -3.103206         -1.485041          0.000000
H             -1.834521         -2.458537          0.000000

