6

O              0.000000         -0.009833          0.000000
H             -0.799571         -0.580965          0.000000
H              0.799571         -0.580965          0.000000
O             -3.550730         -2.537481          0.000000
H             -4.507324         -2.312905          0.000000
H             -3.452936         -3.515204          0.000000

