6

O              0.000000         -0.009833          0.000000
H             -0.799571         -0.580965          0.000000
H              0.799571         -0.580965          0.000000
O             -2.009393         -1.435718          0.000000
H             -2.949251         -1.149059          0.000000
H             -1.975754         -2.417744          0.000000

