6

O              0.000000         -0.009833          0.000000
H             -0.799571         -0.580965          0.000000
H              0.799571         -0.580965          0.000000
O             -2.936451         -2.091135          0.000000
H             -3.558655         -1.330629          0.000000
H             -3.454066         -2.926348          0.000000

