6

O              0.000000         -0.009833          0.000000
H             -0.799571         -0.580965          0.000000
H              0.799571         -0.580965          0.000000
O             -2.593225         -1.853537          0.000000
H             -3.549819         -1.628961          0.000000
H             -2.495431         -2.831260          0.000000

