6

O              0.000000         -0.009833          0.000000
H             -0.799571         -0.580965          0.000000
H              0.799571         -0.580965          0.000000
O             -3.044590         -2.180456          0.000000
H             -4.014309         -2.339048          0.000000
H             -2.580082         -3.046331          0.000000

