6

O              0.000000         -0.009833          0.000000
H             -0.799571         -0.580965          0.000000
H              0.799571         -0.580965          0.000000
O             -1.798009         -1.285516          0.000000
H             -2.754603         -1.060940          0.000000
H             -1.700215         -2.263239          0.000000

