6

O              0.000000         -0.009833          0.000000
H             -0.799571         -0.580965          0.000000
H              0.799571         -0.580965          0.000000
O             -1.913717         -1.362724          0.000000
H             -2.672332         -0.738217          0.000000
H             -2.258443         -2.282870          0.000000

