6

O              0.000000         -0.009833          0.000000
H             -0.799571         -0.580965          0.000000
H              0.799571         -0.580965          0.000000
O             -3.666024         -2.615906          0.000000
H             -4.499664         -2.095761          0.000000
H             -3.887699         -3.573177          0.000000

