6

O              0.000000         -0.009833          0.000000
H             -0.799571         -0.580965          0.000000
H              0.799571         -0.580965          0.000000
O             -2.059590         -1.467670          0.000000
H             -2.857426         -0.894116          0.000000
H             -2.343398         -2.408393          0.000000

