6

O              0.000000         -0.009833          0.000000
H             -0.799571         -0.580965          0.000000
H              0.799571         -0.580965          0.000000
O             -3.017095         -2.151614          0.000000
H             -3.814931         -1.578060          0.000000
H             -3.300903         -3.092336          0.000000

