6

O              0.000000         -0.009833          0.000000
H             -0.799571         -0.580965          0.000000
H              0.799571         -0.580965          0.000000
O             -3.186301         -2.285801          0.000000
H             -3.985873         -2.856933          0.000000
H             -2.386730         -2.856933          0.000000

