6

O              0.000000         -0.009833          0.000000
H             -0.799571         -0.580965          0.000000
H              0.799571         -0.580965          0.000000
O             -4.831904         -3.454180          0.000000
H             -5.809627         -3.356385          0.000000
H             -4.607328         -4.410773          0.000000

