6

O              0.000000         -0.009833          0.000000
H             -0.799571         -0.580965          0.000000
H              0.799571         -0.580965          0.000000
O             -2.609862         -1.864632          0.000000
H             -3.549720         -1.577973          0.000000
H             -2.576224         -2.846658          0.000000

