6

O              0.000000         -0.009833          0.000000
H             -0.799571         -0.580965          0.000000
H              0.799571         -0.580965          0.000000
O             -2.570887         -1.845211          0.000000
H             -3.438165         -2.307092          0.000000
H             -1.852703         -2.515822          0.000000

