6

O              0.000000         -0.009833          0.000000
H             -0.799571         -0.580965          0.000000
H              0.799571         -0.580965          0.000000
O             -4.553878         -3.258537          0.000000
H             -5.523597         -3.417128          0.000000
H             -4.089369         -4.124411          0.000000

