6

O              0.000000         -0.009833          0.000000
H             -0.799571         -0.580965          0.000000
H              0.799571         -0.580965          0.000000
O             -3.131135         -2.230882          0.000000
H             -3.801746         -1.512699          0.000000
H             -3.593016         -3.098161          0.000000

