6

O              0.000000         -0.009833          0.000000
H             -0.799571         -0.580965          0.000000
H              0.799571         -0.580965          0.000000
O             -3.942329         -2.811757          0.000000
H             -4.700944         -2.187250          0.000000
H             -4.287056         -3.731903          0.000000

