6

O              0.000000         -0.009833          0.000000
H             -0.799571         -0.580965          0.000000
H              0.799571         -0.580965          0.000000
O             -2.343042         -1.682982          0.000000
H             -3.178255         -2.200597          0.000000
H             -1.582536         -2.305186          0.000000

