6

O              0.000000         -0.009833          0.000000
H             -0.799571         -0.580965          0.000000
H              0.799571         -0.580965          0.000000
O             -4.666894         -3.339948          0.000000
H             -5.624164         -3.561623          0.000000
H             -4.146749         -4.173588          0.000000

