6

O              0.000000         -0.009833          0.000000
H             -0.799571         -0.580965          0.000000
H              0.799571         -0.580965          0.000000
O             -3.131030         -2.231517          0.000000
H             -3.847177         -1.558731          0.000000
H             -3.535199         -3.127147          0.000000

