6

O              0.000000         -0.009833          0.000000
H             -0.799571         -0.580965          0.000000
H              0.799571         -0.580965          0.000000
O             -4.469028         -3.201569          0.000000
H             -5.304241         -3.719183          0.000000
H             -3.708522         -3.823772          0.000000

