6

O              0.000000         -0.009833          0.000000
H             -0.799571         -0.580965          0.000000
H              0.799571         -0.580965          0.000000
O             -4.152626         -2.964261          0.000000
H             -5.018500         -2.499752          0.000000
H             -4.311217         -3.933980          0.000000

