6

O              0.000000         -0.009833          0.000000
H             -0.799571         -0.580965          0.000000
H              0.799571         -0.580965          0.000000
O             -3.857149         -2.759427          0.000000
H             -4.839273         -2.790087          0.000000
H             -3.509634         -3.678523          0.000000

