6

O              0.000000         -0.009833          0.000000
H             -0.799571         -0.580965          0.000000
H              0.799571         -0.580965          0.000000
O             -3.517833         -2.514766          0.000000
H             -4.487066         -2.353235          0.000000
H             -3.356302         -3.484000          0.000000

