6

O              0.000000         -0.009833          0.000000
H             -0.799571         -0.580965          0.000000
H              0.799571         -0.580965          0.000000
O             -1.865030         -1.327947          0.000000
H             -2.623645         -0.703440          0.000000
H             -2.209757         -2.248094          0.000000

