6

O              0.000000         -0.009833          0.000000
H             -0.799571         -0.580965          0.000000
H              0.799571         -0.580965          0.000000
O             -3.708787         -2.656231          0.000000
H             -4.649509         -2.940040          0.000000
H             -3.135233         -3.454067          0.000000

