6

O              0.000000         -0.009833          0.000000
H             -0.799571         -0.580965          0.000000
H              0.799571         -0.580965          0.000000
O             -2.708933         -1.930745          0.000000
H             -3.467548         -1.306238          0.000000
H             -3.053659         -2.850891          0.000000

