6

O              0.000000         -0.009833          0.000000
H             -0.799571         -0.580965          0.000000
H              0.799571         -0.580965          0.000000
O             -3.467656         -2.481212          0.000000
H             -4.449779         -2.511873          0.000000
H             -3.120140         -3.400309          0.000000

