6

O              0.000000         -0.009833          0.000000
H             -0.799571         -0.580965          0.000000
H              0.799571         -0.580965          0.000000
O             -3.277090         -2.335847          0.000000
H             -3.993237         -1.663062          0.000000
H             -3.681259         -3.231478          0.000000

