6

O              0.000000         -0.009833          0.000000
H             -0.799571         -0.580965          0.000000
H              0.799571         -0.580965          0.000000
O             -3.634126         -2.590877          0.000000
H             -4.350272         -1.918092          0.000000
H             -4.038295         -3.486507          0.000000

