6

O              0.000000         -0.009833          0.000000
H             -0.799571         -0.580965          0.000000
H              0.799571         -0.580965          0.000000
O             -2.916396         -2.086700          0.000000
H             -3.898422         -2.053062          0.000000
H             -2.629737         -3.026558          0.000000

