6

O              0.000000         -0.009833          0.000000
H             -0.799571         -0.580965          0.000000
H              0.799571         -0.580965          0.000000
O             -4.311558         -3.084010          0.000000
H             -5.293681         -3.114671          0.000000
H             -3.964043         -4.003107          0.000000

