6

O              0.000000         -0.009833          0.000000
H             -0.799571         -0.580965          0.000000
H              0.799571         -0.580965          0.000000
O             -4.347372         -3.103368          0.000000
H             -5.213246         -2.638859          0.000000
H             -4.505963         -4.073087          0.000000

