6

O              0.000000         -0.009833          0.000000
H             -0.799571         -0.580965          0.000000
H              0.799571         -0.580965          0.000000
O             -4.699938         -3.362867          0.000000
H             -5.669657         -3.521459          0.000000
H             -4.235429         -4.228741          0.000000

