6

O              0.000000         -0.009833          0.000000
H             -0.799571         -0.580965          0.000000
H              0.799571         -0.580965          0.000000
O             -2.351710         -1.676331          0.000000
H             -3.149546         -1.102777          0.000000
H             -2.635518         -2.617053          0.000000

