6

O              0.000000         -0.009833          0.000000
H             -0.799571         -0.580965          0.000000
H              0.799571         -0.580965          0.000000
O             -3.438819         -2.453615          0.000000
H             -4.272459         -1.933470          0.000000
H             -3.660494         -3.410885          0.000000

