6

O              0.000000         -0.009833          0.000000
H             -0.799571         -0.580965          0.000000
H              0.799571         -0.580965          0.000000
O             -3.112958         -2.223993          0.000000
H             -4.052816         -1.937333          0.000000
H             -3.079319         -3.206018          0.000000

