6

O              0.000000         -0.009833          0.000000
H             -0.799571         -0.580965          0.000000
H              0.799571         -0.580965          0.000000
O             -2.836219         -2.027891          0.000000
H             -3.805452         -1.866360          0.000000
H             -2.674688         -2.997125          0.000000

