6

O              0.000000         -0.009833          0.000000
H             -0.799571         -0.580965          0.000000
H              0.799571         -0.580965          0.000000
O             -2.797451         -2.007566          0.000000
H             -3.632664         -2.525180          0.000000
H             -2.036945         -2.629769          0.000000

