6

O              0.000000         -0.009833          0.000000
H             -0.799571         -0.580965          0.000000
H              0.799571         -0.580965          0.000000
O             -1.799927         -1.282194          0.000000
H             -2.597763         -0.708640          0.000000
H             -2.083736         -2.222916          0.000000

