6

O              0.000000         -0.009833          0.000000
H             -0.799571         -0.580965          0.000000
H              0.799571         -0.580965          0.000000
O             -3.941347         -2.814128          0.000000
H             -4.835747         -2.407245          0.000000
H             -4.036176         -3.792144          0.000000

