6

O              0.000000         -0.009833          0.000000
H             -0.799571         -0.580965          0.000000
H              0.799571         -0.580965          0.000000
O             -3.596373         -2.574593          0.000000
H             -4.566092         -2.733185          0.000000
H             -3.131864         -3.440468          0.000000

