6

O              0.000000         -0.009833          0.000000
H             -0.799571         -0.580965          0.000000
H              0.799571         -0.580965          0.000000
O             -4.631957         -3.317428          0.000000
H             -5.499236         -3.779309          0.000000
H             -3.913774         -3.988039          0.000000

