6

O              0.000000         -0.009833          0.000000
H             -0.799571         -0.580965          0.000000
H              0.799571         -0.580965          0.000000
O             -4.900169         -3.493155          0.000000
H             -5.471301         -2.693584          0.000000
H             -5.471301         -4.292727          0.000000

