6

O              0.000000         -0.009833          0.000000
H             -0.799571         -0.580965          0.000000
H              0.799571         -0.580965          0.000000
O             -2.449584         -1.743367          0.000000
H             -3.071788         -0.982861          0.000000
H             -2.967199         -2.578580          0.000000

