6

O              0.000000         -0.009833          0.000000
H             -0.799571         -0.580965          0.000000
H              0.799571         -0.580965          0.000000
O             -4.890979         -3.502968          0.000000
H             -5.726192         -4.020582          0.000000
H             -4.130473         -4.125171          0.000000

