6

O              0.000000         -0.009833          0.000000
H             -0.799571         -0.580965          0.000000
H              0.799571         -0.580965          0.000000
O             -4.751669         -3.395308          0.000000
H             -5.708262         -3.170732          0.000000
H             -4.653874         -4.373032          0.000000

