6

O              0.000000         -0.009833          0.000000
H             -0.799571         -0.580965          0.000000
H              0.799571         -0.580965          0.000000
O             -3.673168         -2.633569          0.000000
H             -4.472740         -3.204701          0.000000
H             -2.873597         -3.204701          0.000000

