6

O              0.000000         -0.009833          0.000000
H             -0.799571         -0.580965          0.000000
H              0.799571         -0.580965          0.000000
O             -1.959389         -1.402349          0.000000
H             -2.937112         -1.304554          0.000000
H             -1.734812         -2.358942          0.000000

