6

O              0.000000         -0.009833          0.000000
H             -0.799571         -0.580965          0.000000
H              0.799571         -0.580965          0.000000
O             -4.535218         -3.247770          0.000000
H             -5.430848         -3.651939          0.000000
H             -3.862433         -3.963916          0.000000

