6

O              0.000000         -0.009833          0.000000
H             -0.799571         -0.580965          0.000000
H              0.799571         -0.580965          0.000000
O             -4.039953         -2.880049          0.000000
H             -4.710564         -2.161866          0.000000
H             -4.501834         -3.747328          0.000000

