6

O              0.000000         -0.009833          0.000000
H             -0.799571         -0.580965          0.000000
H              0.799571         -0.580965          0.000000
O             -3.746600         -2.675021          0.000000
H             -4.641000         -2.268138          0.000000
H             -3.841429         -3.653037          0.000000

