6

O              0.000000         -0.009833          0.000000
H             -0.799571         -0.580965          0.000000
H              0.799571         -0.580965          0.000000
O             -2.409859         -1.729037          0.000000
H             -3.330006         -2.073764          0.000000
H             -1.785353         -2.487653          0.000000

