6

O              0.000000         -0.009833          0.000000
H             -0.799571         -0.580965          0.000000
H              0.799571         -0.580965          0.000000
O             -3.612602         -2.586186          0.000000
H             -4.582321         -2.744777          0.000000
H             -3.148093         -3.452060          0.000000

