6

O              0.000000         -0.009833          0.000000
H             -0.799571         -0.580965          0.000000
H              0.799571         -0.580965          0.000000
O             -2.459162         -1.763627          0.000000
H             -3.399884         -2.047435          0.000000
H             -1.885608         -2.561463          0.000000

