6

O              0.000000         -0.009833          0.000000
H             -0.799571         -0.580965          0.000000
H              0.799571         -0.580965          0.000000
O             -2.718824         -1.949103          0.000000
H             -3.659547         -2.232912          0.000000
H             -2.145270         -2.746939          0.000000

