6

O              0.000000         -0.009833          0.000000
H             -0.799571         -0.580965          0.000000
H              0.799571         -0.580965          0.000000
O             -4.200294         -3.000674          0.000000
H             -5.140152         -2.714015          0.000000
H             -4.166655         -3.982700          0.000000

