6

O              0.000000         -0.009833          0.000000
H             -0.799571         -0.580965          0.000000
H              0.799571         -0.580965          0.000000
O             -2.495852         -1.783984          0.000000
H             -3.452446         -1.559408          0.000000
H             -2.398057         -2.761707          0.000000

