6

O              0.000000         -0.009833          0.000000
H             -0.799571         -0.580965          0.000000
H              0.799571         -0.580965          0.000000
O             -3.212028         -2.290105          0.000000
H             -3.970644         -1.665598          0.000000
H             -3.556755         -3.210251          0.000000

