6

O              0.000000         -0.009833          0.000000
H             -0.799571         -0.580965          0.000000
H              0.799571         -0.580965          0.000000
O             -3.627027         -2.598457          0.000000
H             -4.547173         -2.943184          0.000000
H             -3.002520         -3.357072          0.000000

