6

O              0.000000         -0.009833          0.000000
H             -0.799571         -0.580965          0.000000
H              0.799571         -0.580965          0.000000
O             -3.601773         -2.567058          0.000000
H             -4.272384         -1.848875          0.000000
H             -4.063654         -3.434337          0.000000

