6

O              0.000000         -0.009833          0.000000
H             -0.799571         -0.580965          0.000000
H              0.799571         -0.580965          0.000000
O             -1.809390         -1.300123          0.000000
H             -2.729537         -1.644850          0.000000
H             -1.184883         -2.058739          0.000000

