6

O              0.000000         -0.009833          0.000000
H             -0.799571         -0.580965          0.000000
H              0.799571         -0.580965          0.000000
O             -4.721316         -3.368186          0.000000
H             -5.479931         -2.743679          0.000000
H             -5.066043         -4.288332          0.000000

