6

O              0.000000         -0.009833          0.000000
H             -0.799571         -0.580965          0.000000
H              0.799571         -0.580965          0.000000
O             -2.982279         -2.132221          0.000000
H             -3.951512         -1.970690          0.000000
H             -2.820748         -3.101455          0.000000

