6

O              0.000000         -0.009833          0.000000
H             -0.799571         -0.580965          0.000000
H              0.799571         -0.580965          0.000000
O             -2.069668         -1.485413          0.000000
H             -3.010391         -1.769221          0.000000
H             -1.496114         -2.283249          0.000000

