6

O              0.000000         -0.009833          0.000000
H             -0.799571         -0.580965          0.000000
H              0.799571         -0.580965          0.000000
O             -2.140921         -1.525016          0.000000
H             -2.899537         -0.900509          0.000000
H             -2.485648         -2.445162          0.000000

