6

O              0.000000         -0.009833          0.000000
H             -0.799571         -0.580965          0.000000
H              0.799571         -0.580965          0.000000
O             -3.307297         -2.363597          0.000000
H             -4.263890         -2.139021          0.000000
H             -3.209502         -3.341320          0.000000

