6

O              0.000000         -0.009833          0.000000
H             -0.799571         -0.580965          0.000000
H              0.799571         -0.580965          0.000000
O             -2.553374         -1.833703          0.000000
H             -3.352946         -2.404834          0.000000
H             -1.753803         -2.404834          0.000000

