6

O              0.000000         -0.009833          0.000000
H             -0.799571         -0.580965          0.000000
H              0.799571         -0.580965          0.000000
O             -4.420981         -3.166729          0.000000
H             -5.288260         -3.628610          0.000000
H             -3.702798         -3.837340          0.000000

