6

O              0.000000         -0.009833          0.000000
H             -0.799571         -0.580965          0.000000
H              0.799571         -0.580965          0.000000
O             -4.819004         -3.435837          0.000000
H             -5.441207         -2.675332          0.000000
H             -5.336618         -4.271051          0.000000

