6

O              0.000000         -0.009833          0.000000
H             -0.799571         -0.580965          0.000000
H              0.799571         -0.580965          0.000000
O             -2.574520         -1.843977          0.000000
H             -3.552535         -1.938807          0.000000
H             -2.167637         -2.738378          0.000000

