6

O              0.000000         -0.009833          0.000000
H             -0.799571         -0.580965          0.000000
H              0.799571         -0.580965          0.000000
O             -4.340471         -3.108663          0.000000
H             -5.236102         -3.512832          0.000000
H             -3.667686         -3.824809          0.000000

