6

O              0.000000         -0.009833          0.000000
H             -0.799571         -0.580965          0.000000
H              0.799571         -0.580965          0.000000
O             -2.494942         -1.784893          0.000000
H             -3.472665         -1.687099          0.000000
H             -2.270366         -2.741487          0.000000

