6

O              0.000000         -0.009833          0.000000
H             -0.799571         -0.580965          0.000000
H              0.799571         -0.580965          0.000000
O             -1.945495         -1.387712          0.000000
H             -2.811369         -0.923204          0.000000
H             -2.104087         -2.357431          0.000000

