6

O              0.000000         -0.009833          0.000000
H             -0.799571         -0.580965          0.000000
H              0.799571         -0.580965          0.000000
O             -3.760796         -2.689090          0.000000
H             -4.738519         -2.591296          0.000000
H             -3.536220         -3.645684          0.000000

