6

O              0.000000         -0.009833          0.000000
H             -0.799571         -0.580965          0.000000
H              0.799571         -0.580965          0.000000
O             -4.733510         -3.385409          0.000000
H             -5.715633         -3.416070          0.000000
H             -4.385994         -4.304506          0.000000

