6

O              0.000000         -0.009833          0.000000
H             -0.799571         -0.580965          0.000000
H              0.799571         -0.580965          0.000000
O             -3.938817         -2.817013          0.000000
H             -4.920843         -2.783374          0.000000
H             -3.652157         -3.756871          0.000000

