6

O              0.000000         -0.009833          0.000000
H             -0.799571         -0.580965          0.000000
H              0.799571         -0.580965          0.000000
O             -4.510654         -3.215584          0.000000
H             -5.132858         -2.455079          0.000000
H             -5.028269         -4.050798          0.000000

