6

O              0.000000         -0.009833          0.000000
H             -0.799571         -0.580965          0.000000
H              0.799571         -0.580965          0.000000
O             -3.811175         -2.721937          0.000000
H             -4.730272         -2.374421          0.000000
H             -3.841836         -3.704060          0.000000

