6

O              0.000000         -0.009833          0.000000
H             -0.799571         -0.580965          0.000000
H              0.799571         -0.580965          0.000000
O             -2.416626         -1.722700          0.000000
H             -3.214462         -1.149146          0.000000
H             -2.700434         -2.663422          0.000000

