6

O              0.000000         -0.009833          0.000000
H             -0.799571         -0.580965          0.000000
H              0.799571         -0.580965          0.000000
O             -4.760505         -3.410251          0.000000
H             -5.560076         -3.981383          0.000000
H             -3.960933         -3.981383          0.000000

