6

O              0.000000         -0.009833          0.000000
H             -0.799571         -0.580965          0.000000
H              0.799571         -0.580965          0.000000
O             -4.068125         -2.910126          0.000000
H             -5.050248         -2.940787          0.000000
H             -3.720610         -3.829223          0.000000

