6

O              0.000000         -0.009833          0.000000
H             -0.799571         -0.580965          0.000000
H              0.799571         -0.580965          0.000000
O             -4.588940         -3.279856          0.000000
H             -5.558173         -3.118324          0.000000
H             -4.427409         -4.249089          0.000000

