6

O              0.000000         -0.009833          0.000000
H             -0.799571         -0.580965          0.000000
H              0.799571         -0.580965          0.000000
O             -3.771825         -2.703038          0.000000
H             -4.639104         -3.164919          0.000000
H             -3.053642         -3.373649          0.000000

