6

O              0.000000         -0.009833          0.000000
H             -0.799571         -0.580965          0.000000
H              0.799571         -0.580965          0.000000
O             -1.897802         -1.349230          0.000000
H             -2.520005         -0.588724          0.000000
H             -2.415416         -2.184443          0.000000

