6

O              0.000000         -0.009833          0.000000
H             -0.799571         -0.580965          0.000000
H              0.799571         -0.580965          0.000000
O             -2.035968         -1.462561          0.000000
H             -2.931598         -1.866730          0.000000
H             -1.363182         -2.178708          0.000000

