6

O              0.000000         -0.009833          0.000000
H             -0.799571         -0.580965          0.000000
H              0.799571         -0.580965          0.000000
O             -2.887597         -2.057633          0.000000
H             -3.603743         -1.384848          0.000000
H             -3.291766         -2.953263          0.000000

