6

O              0.000000         -0.009833          0.000000
H             -0.799571         -0.580965          0.000000
H              0.799571         -0.580965          0.000000
O             -2.514332         -1.791011          0.000000
H             -3.230478         -1.118225          0.000000
H             -2.918501         -2.686641          0.000000

