6

O              0.000000         -0.009833          0.000000
H             -0.799571         -0.580965          0.000000
H              0.799571         -0.580965          0.000000
O             -2.720012         -1.948611          0.000000
H             -3.689731         -2.107202          0.000000
H             -2.255504         -2.814485          0.000000

