6

O              0.000000         -0.009833          0.000000
H             -0.799571         -0.580965          0.000000
H              0.799571         -0.580965          0.000000
O             -3.731667         -2.659156          0.000000
H             -4.353871         -1.898650          0.000000
H             -4.249282         -3.494369          0.000000

