6

O              0.000000         -0.009833          0.000000
H             -0.799571         -0.580965          0.000000
H              0.799571         -0.580965          0.000000
O             -2.977871         -2.134766          0.000000
H             -3.898017         -2.479493          0.000000
H             -2.353364         -2.893382          0.000000

