6

O              0.000000         -0.009833          0.000000
H             -0.799571         -0.580965          0.000000
H              0.799571         -0.580965          0.000000
O             -3.194817         -2.280884          0.000000
H             -4.089218         -1.874001          0.000000
H             -3.289646         -3.258899          0.000000

