6

O              0.000000         -0.009833          0.000000
H             -0.799571         -0.580965          0.000000
H              0.799571         -0.580965          0.000000
O             -2.319774         -1.649985          0.000000
H             -2.890906         -0.850414          0.000000
H             -2.890906         -2.449557          0.000000

