6

O              0.000000         -0.009833          0.000000
H             -0.799571         -0.580965          0.000000
H              0.799571         -0.580965          0.000000
O             -3.583596         -2.560168          0.000000
H             -4.523454         -2.273509          0.000000
H             -3.549957         -3.542194          0.000000

