6

O              0.000000         -0.009833          0.000000
H             -0.799571         -0.580965          0.000000
H              0.799571         -0.580965          0.000000
O             -3.243807         -2.315094          0.000000
H             -4.109681         -1.850585          0.000000
H             -3.402399         -3.284813          0.000000

