6

O              0.000000         -0.009833          0.000000
H             -0.799571         -0.580965          0.000000
H              0.799571         -0.580965          0.000000
O             -3.157004         -2.262094          0.000000
H             -4.097727         -2.545903          0.000000
H             -2.583451         -3.059930          0.000000

