6

O              0.000000         -0.009833          0.000000
H             -0.799571         -0.580965          0.000000
H              0.799571         -0.580965          0.000000
O             -3.876431         -2.767759          0.000000
H             -4.770831         -2.360876          0.000000
H             -3.971260         -3.745775          0.000000

