6

O              0.000000         -0.009833          0.000000
H             -0.799571         -0.580965          0.000000
H              0.799571         -0.580965          0.000000
O             -3.050075         -2.171637          0.000000
H             -3.621206         -1.372066          0.000000
H             -3.621207         -2.971209          0.000000

