6

O              0.000000         -0.009833          0.000000
H             -0.799571         -0.580965          0.000000
H              0.799571         -0.580965          0.000000
O             -3.599417         -2.572258          0.000000
H             -4.556011         -2.347682          0.000000
H             -3.501623         -3.549981          0.000000

