6

O              0.000000         -0.009833          0.000000
H             -0.799571         -0.580965          0.000000
H              0.799571         -0.580965          0.000000
O             -1.683967         -1.204840          0.000000
H             -2.653201         -1.043309          0.000000
H             -1.522436         -2.174074          0.000000

