6

O              0.000000         -0.009833          0.000000
H             -0.799571         -0.580965          0.000000
H              0.799571         -0.580965          0.000000
O             -2.603345         -1.868395          0.000000
H             -3.470623         -2.330276          0.000000
H             -1.885161         -2.539006          0.000000

