6

O              0.000000         -0.009833          0.000000
H             -0.799571         -0.580965          0.000000
H              0.799571         -0.580965          0.000000
O             -2.816197         -2.018657          0.000000
H             -3.756920         -2.302465          0.000000
H             -2.242644         -2.816493          0.000000

