6

O              0.000000         -0.009833          0.000000
H             -0.799571         -0.580965          0.000000
H              0.799571         -0.580965          0.000000
O             -2.527870         -1.807638          0.000000
H             -3.497103         -1.646107          0.000000
H             -2.366338         -2.776872          0.000000

