6

O              0.000000         -0.009833          0.000000
H             -0.799571         -0.580965          0.000000
H              0.799571         -0.580965          0.000000
O             -2.804609         -2.003739          0.000000
H             -3.744467         -1.717080          0.000000
H             -2.770970         -2.985765          0.000000

