6

O              0.000000         -0.009833          0.000000
H             -0.799571         -0.580965          0.000000
H              0.799571         -0.580965          0.000000
O             -2.251011         -1.611418          0.000000
H             -3.233037         -1.577779          0.000000
H             -1.964352         -2.551275          0.000000

