6

O              0.000000         -0.009833          0.000000
H             -0.799571         -0.580965          0.000000
H              0.799571         -0.580965          0.000000
O             -4.829769         -3.455606          0.000000
H             -5.799488         -3.614197          0.000000
H             -4.365261         -4.321480          0.000000

