6

O              0.000000         -0.009833          0.000000
H             -0.799571         -0.580965          0.000000
H              0.799571         -0.580965          0.000000
O             -2.644017         -1.884376          0.000000
H             -3.402632         -1.259869          0.000000
H             -2.988744         -2.804522          0.000000

