6

O              0.000000         -0.009833          0.000000
H             -0.799571         -0.580965          0.000000
H              0.799571         -0.580965          0.000000
O             -2.894181         -2.077140          0.000000
H             -3.693753         -2.648272          0.000000
H             -2.094610         -2.648272          0.000000

