6

O              0.000000         -0.009833          0.000000
H             -0.799571         -0.580965          0.000000
H              0.799571         -0.580965          0.000000
O             -4.327241         -3.095942          0.000000
H             -5.305256         -3.190771          0.000000
H             -3.920358         -3.990343          0.000000

