6

O              0.000000         -0.009833          0.000000
H             -0.799571         -0.580965          0.000000
H              0.799571         -0.580965          0.000000
O             -4.656214         -3.322432          0.000000
H             -5.454050         -2.748879          0.000000
H             -4.940022         -4.263155          0.000000

