6

O              0.000000         -0.009833          0.000000
H             -0.799571         -0.580965          0.000000
H              0.799571         -0.580965          0.000000
O             -1.742573         -1.254068          0.000000
H             -2.577786         -1.771683          0.000000
H             -0.982067         -1.876272          0.000000

