6

O              0.000000         -0.009833          0.000000
H             -0.799571         -0.580965          0.000000
H              0.799571         -0.580965          0.000000
O             -2.252418         -1.610100          0.000000
H             -3.209012         -1.385524          0.000000
H             -2.154624         -2.587823          0.000000

