6

O              0.000000         -0.009833          0.000000
H             -0.799571         -0.580965          0.000000
H              0.799571         -0.580965          0.000000
O             -3.228571         -2.299795          0.000000
H             -3.850775         -1.539290          0.000000
H             -3.746186         -3.135009          0.000000

