6

O              0.000000         -0.009833          0.000000
H             -0.799571         -0.580965          0.000000
H              0.799571         -0.580965          0.000000
O             -4.895252         -3.501671          0.000000
H             -5.873267         -3.596500          0.000000
H             -4.488369         -4.396072          0.000000

