6

O              0.000000         -0.009833          0.000000
H             -0.799571         -0.580965          0.000000
H              0.799571         -0.580965          0.000000
O             -4.867627         -3.471254          0.000000
H             -5.538238         -2.753071          0.000000
H             -5.329508         -4.338533          0.000000

