6

O              0.000000         -0.009833          0.000000
H             -0.799571         -0.580965          0.000000
H              0.799571         -0.580965          0.000000
O             -3.905836         -2.794203          0.000000
H             -4.887959         -2.824864          0.000000
H             -3.558320         -3.713300          0.000000

