6

O              0.000000         -0.009833          0.000000
H             -0.799571         -0.580965          0.000000
H              0.799571         -0.580965          0.000000
O             -2.818500         -2.017522          0.000000
H             -3.800623         -2.048182          0.000000
H             -2.470984         -2.936619          0.000000

