6

O              0.000000         -0.009833          0.000000
H             -0.799571         -0.580965          0.000000
H              0.799571         -0.580965          0.000000
O             -1.713821         -1.229891          0.000000
H             -2.683540         -1.388482          0.000000
H             -1.249312         -2.095765          0.000000

