6

O              0.000000         -0.009833          0.000000
H             -0.799571         -0.580965          0.000000
H              0.799571         -0.580965          0.000000
O             -2.721126         -1.947968          0.000000
H             -3.703249         -1.978629          0.000000
H             -2.373611         -2.867065          0.000000

