6

O              0.000000         -0.009833          0.000000
H             -0.799571         -0.580965          0.000000
H              0.799571         -0.580965          0.000000
O             -3.472005         -2.473679          0.000000
H             -4.094208         -1.713174          0.000000
H             -3.989619         -3.308893          0.000000

