6

O              0.000000         -0.009833          0.000000
H             -0.799571         -0.580965          0.000000
H              0.799571         -0.580965          0.000000
O             -4.038380         -2.884228          0.000000
H             -4.957477         -2.536713          0.000000
H             -4.069041         -3.866352          0.000000

