6

O              0.000000         -0.009833          0.000000
H             -0.799571         -0.580965          0.000000
H              0.799571         -0.580965          0.000000
O             -3.432280         -2.459350          0.000000
H             -4.352426         -2.804077          0.000000
H             -2.807773         -3.217965          0.000000

