6

O              0.000000         -0.009833          0.000000
H             -0.799571         -0.580965          0.000000
H              0.799571         -0.580965          0.000000
O             -2.644163         -1.883749          0.000000
H             -3.360309         -1.210964          0.000000
H             -3.048332         -2.779379          0.000000

