6

O              0.000000         -0.009833          0.000000
H             -0.799571         -0.580965          0.000000
H              0.799571         -0.580965          0.000000
O             -2.686969         -1.925692          0.000000
H             -3.644239         -2.147367          0.000000
H             -2.166824         -2.759332          0.000000

