6

O              0.000000         -0.009833          0.000000
H             -0.799571         -0.580965          0.000000
H              0.799571         -0.580965          0.000000
O             -2.428460         -1.739647          0.000000
H             -3.406475         -1.834476          0.000000
H             -2.021577         -2.634048          0.000000

