6

O              0.000000         -0.009833          0.000000
H             -0.799571         -0.580965          0.000000
H              0.799571         -0.580965          0.000000
O             -3.723138         -2.668262          0.000000
H             -4.590417         -3.130142          0.000000
H             -3.004955         -3.338872          0.000000

