6

O              0.000000         -0.009833          0.000000
H             -0.799571         -0.580965          0.000000
H              0.799571         -0.580965          0.000000
O             -4.575570         -3.261953          0.000000
H             -5.197773         -2.501448          0.000000
H             -5.093185         -4.097166          0.000000

