6

O              0.000000         -0.009833          0.000000
H             -0.799571         -0.580965          0.000000
H              0.799571         -0.580965          0.000000
O             -3.860771         -2.755014          0.000000
H             -4.694411         -2.234869          0.000000
H             -4.082445         -3.712284          0.000000

