6

O              0.000000         -0.009833          0.000000
H             -0.799571         -0.580965          0.000000
H              0.799571         -0.580965          0.000000
O             -3.503735         -2.499984          0.000000
H             -4.337375         -1.979839          0.000000
H             -3.725410         -3.457254          0.000000

