6

O              0.000000         -0.009833          0.000000
H             -0.799571         -0.580965          0.000000
H              0.799571         -0.580965          0.000000
O             -2.805892         -2.001516          0.000000
H             -3.639532         -1.481371          0.000000
H             -3.027567         -2.958787          0.000000

