6

O              0.000000         -0.009833          0.000000
H             -0.799571         -0.580965          0.000000
H              0.799571         -0.580965          0.000000
O             -2.171682         -1.551641          0.000000
H             -3.111540         -1.264982          0.000000
H             -2.138043         -2.533667          0.000000

