6

O              0.000000         -0.009833          0.000000
H             -0.799571         -0.580965          0.000000
H              0.799571         -0.580965          0.000000
O             -4.715581         -3.374725          0.000000
H             -5.672851         -3.596400          0.000000
H             -4.195436         -4.208365          0.000000

