6

O              0.000000         -0.009833          0.000000
H             -0.799571         -0.580965          0.000000
H              0.799571         -0.580965          0.000000
O             -4.534583         -3.247875          0.000000
H             -5.401862         -3.709756          0.000000
H             -3.816400         -3.918486          0.000000

