6

O              0.000000         -0.009833          0.000000
H             -0.799571         -0.580965          0.000000
H              0.799571         -0.580965          0.000000
O             -2.302531         -1.642742          0.000000
H             -3.168405         -1.178234          0.000000
H             -2.461122         -2.612461          0.000000

