6

O              0.000000         -0.009833          0.000000
H             -0.799571         -0.580965          0.000000
H              0.799571         -0.580965          0.000000
O             -3.125735         -2.238418          0.000000
H             -4.095454         -2.397009          0.000000
H             -2.661226         -3.104292          0.000000

