6

O              0.000000         -0.009833          0.000000
H             -0.799571         -0.580965          0.000000
H              0.799571         -0.580965          0.000000
O             -3.598507         -2.573167          0.000000
H             -4.576230         -2.475373          0.000000
H             -3.373931         -3.529761          0.000000

