6

O              0.000000         -0.009833          0.000000
H             -0.799571         -0.580965          0.000000
H              0.799571         -0.580965          0.000000
O             -3.195120         -2.280317          0.000000
H             -4.060995         -1.815808          0.000000
H             -3.353712         -3.250036          0.000000

