6

O              0.000000         -0.009833          0.000000
H             -0.799571         -0.580965          0.000000
H              0.799571         -0.580965          0.000000
O             -4.728047         -3.387066          0.000000
H             -5.527618         -3.958198          0.000000
H             -3.928475         -3.958198          0.000000

