6

O              0.000000         -0.009833          0.000000
H             -0.799571         -0.580965          0.000000
H              0.799571         -0.580965          0.000000
O             -4.765968         -3.408593          0.000000
H             -5.748091         -3.439254          0.000000
H             -4.418452         -4.327690          0.000000

