6

O              0.000000         -0.009833          0.000000
H             -0.799571         -0.580965          0.000000
H              0.799571         -0.580965          0.000000
O             -4.831406         -3.454588          0.000000
H             -5.813432         -3.420949          0.000000
H             -4.544747         -4.394445          0.000000

