6

O              0.000000         -0.009833          0.000000
H             -0.799571         -0.580965          0.000000
H              0.799571         -0.580965          0.000000
O             -4.395756         -3.138712          0.000000
H             -5.290156         -2.731829          0.000000
H             -4.490585         -4.116727          0.000000

