6

O              0.000000         -0.009833          0.000000
H             -0.799571         -0.580965          0.000000
H              0.799571         -0.580965          0.000000
O             -4.584532         -3.282401          0.000000
H             -5.504678         -3.627127          0.000000
H             -3.960025         -4.041016          0.000000

