6

O              0.000000         -0.009833          0.000000
H             -0.799571         -0.580965          0.000000
H              0.799571         -0.580965          0.000000
O             -3.438554         -2.454201          0.000000
H             -4.304428         -1.989692          0.000000
H             -3.597145         -3.423920          0.000000

