6

O              0.000000         -0.009833          0.000000
H             -0.799571         -0.580965          0.000000
H              0.799571         -0.580965          0.000000
O             -3.401040         -2.435752          0.000000
H             -4.358310         -2.657426          0.000000
H             -2.880895         -3.269392          0.000000

