6

O              0.000000         -0.009833          0.000000
H             -0.799571         -0.580965          0.000000
H              0.799571         -0.580965          0.000000
O             -1.780373         -1.275242          0.000000
H             -2.762399         -1.241603          0.000000
H             -1.493714         -2.215100          0.000000

