6

O              0.000000         -0.009833          0.000000
H             -0.799571         -0.580965          0.000000
H              0.799571         -0.580965          0.000000
O             -3.211842         -2.290721          0.000000
H             -4.009677         -1.717167          0.000000
H             -3.495650         -3.231443          0.000000

