6

O              0.000000         -0.009833          0.000000
H             -0.799571         -0.580965          0.000000
H              0.799571         -0.580965          0.000000
O             -4.394633         -3.140279          0.000000
H             -5.351227         -2.915703          0.000000
H             -4.296839         -4.118002          0.000000

