6

O              0.000000         -0.009833          0.000000
H             -0.799571         -0.580965          0.000000
H              0.799571         -0.580965          0.000000
O             -2.741204         -1.954545          0.000000
H             -3.539039         -1.380991          0.000000
H             -3.025012         -2.895268          0.000000

