6

O              0.000000         -0.009833          0.000000
H             -0.799571         -0.580965          0.000000
H              0.799571         -0.580965          0.000000
O             -3.903534         -2.795339          0.000000
H             -4.844256         -3.079147          0.000000
H             -3.329980         -3.593175          0.000000

