6

O              0.000000         -0.009833          0.000000
H             -0.799571         -0.580965          0.000000
H              0.799571         -0.580965          0.000000
O             -1.702327         -1.213242          0.000000
H             -2.535967         -0.693097          0.000000
H             -1.924002         -2.170513          0.000000

