6

O              0.000000         -0.009833          0.000000
H             -0.799571         -0.580965          0.000000
H              0.799571         -0.580965          0.000000
O             -4.217807         -3.010043          0.000000
H             -5.051447         -2.489898          0.000000
H             -4.439481         -3.967314          0.000000

