6

O              0.000000         -0.009833          0.000000
H             -0.799571         -0.580965          0.000000
H              0.799571         -0.580965          0.000000
O             -2.735053         -1.960696          0.000000
H             -3.675776         -2.244504          0.000000
H             -2.161499         -2.758531          0.000000

