6

O              0.000000         -0.009833          0.000000
H             -0.799571         -0.580965          0.000000
H              0.799571         -0.580965          0.000000
O             -4.799916         -3.430555          0.000000
H             -5.769149         -3.269024          0.000000
H             -4.638385         -4.399789          0.000000

