6

O              0.000000         -0.009833          0.000000
H             -0.799571         -0.580965          0.000000
H              0.799571         -0.580965          0.000000
O             -2.152569         -1.542579          0.000000
H             -3.130584         -1.637408          0.000000
H             -1.745685         -2.436979          0.000000

