6

O              0.000000         -0.009833          0.000000
H             -0.799571         -0.580965          0.000000
H              0.799571         -0.580965          0.000000
O             -4.153619         -2.960555          0.000000
H             -4.775822         -2.200049          0.000000
H             -4.671233         -3.795768          0.000000

