6

O              0.000000         -0.009833          0.000000
H             -0.799571         -0.580965          0.000000
H              0.799571         -0.580965          0.000000
O             -3.926351         -2.798903          0.000000
H             -4.596962         -2.080720          0.000000
H             -4.388232         -3.666182          0.000000

