6

O              0.000000         -0.009833          0.000000
H             -0.799571         -0.580965          0.000000
H              0.799571         -0.580965          0.000000
O             -4.780497         -3.421094          0.000000
H             -5.737767         -3.642769          0.000000
H             -4.260352         -4.254734          0.000000

