6

O              0.000000         -0.009833          0.000000
H             -0.799571         -0.580965          0.000000
H              0.799571         -0.580965          0.000000
O             -3.902291         -2.795672          0.000000
H             -4.797921         -3.199841          0.000000
H             -3.229506         -3.511818          0.000000

