6

O              0.000000         -0.009833          0.000000
H             -0.799571         -0.580965          0.000000
H              0.799571         -0.580965          0.000000
O             -4.341714         -3.108330          0.000000
H             -5.282436         -3.392138          0.000000
H             -3.768160         -3.906166          0.000000

