6

O              0.000000         -0.009833          0.000000
H             -0.799571         -0.580965          0.000000
H              0.799571         -0.580965          0.000000
O             -2.514500         -1.789736          0.000000
H             -3.136703         -1.029230          0.000000
H             -3.032115         -2.624949          0.000000

