6

O              0.000000         -0.009833          0.000000
H             -0.799571         -0.580965          0.000000
H              0.799571         -0.580965          0.000000
O             -3.679652         -2.631129          0.000000
H             -4.657375         -2.533334          0.000000
H             -3.455076         -3.587722          0.000000

