6

O              0.000000         -0.009833          0.000000
H             -0.799571         -0.580965          0.000000
H              0.799571         -0.580965          0.000000
O             -3.339315         -2.387251          0.000000
H             -4.308548         -2.225720          0.000000
H             -3.177784         -3.356485          0.000000

