6

O              0.000000         -0.009833          0.000000
H             -0.799571         -0.580965          0.000000
H              0.799571         -0.580965          0.000000
O             -1.800428         -1.279676          0.000000
H             -2.422632         -0.519170          0.000000
H             -2.318043         -2.114889          0.000000

