6

O              0.000000         -0.009833          0.000000
H             -0.799571         -0.580965          0.000000
H              0.799571         -0.580965          0.000000
O             -3.922065         -2.805796          0.000000
H             -4.904188         -2.836457          0.000000
H             -3.574549         -3.724893          0.000000

