6

O              0.000000         -0.009833          0.000000
H             -0.799571         -0.580965          0.000000
H              0.799571         -0.580965          0.000000
O             -1.823717         -1.312030          0.000000
H             -2.658930         -1.829644          0.000000
H             -1.063211         -1.934233          0.000000

