6

O              0.000000         -0.009833          0.000000
H             -0.799571         -0.580965          0.000000
H              0.799571         -0.580965          0.000000
O             -2.871557         -2.044122          0.000000
H             -3.442689         -1.244551          0.000000
H             -3.442689         -2.843694          0.000000

