6

O              0.000000         -0.009833          0.000000
H             -0.799571         -0.580965          0.000000
H              0.799571         -0.580965          0.000000
O             -4.208722         -3.016114          0.000000
H             -5.008293         -3.587245          0.000000
H             -3.409151         -3.587245          0.000000

