6

O              0.000000         -0.009833          0.000000
H             -0.799571         -0.580965          0.000000
H              0.799571         -0.580965          0.000000
O             -2.316424         -1.657378          0.000000
H             -3.294147         -1.559584          0.000000
H             -2.091848         -2.613972          0.000000

