6

O              0.000000         -0.009833          0.000000
H             -0.799571         -0.580965          0.000000
H              0.799571         -0.580965          0.000000
O             -1.711390         -1.230716          0.000000
H             -2.607020         -1.634885          0.000000
H             -1.038604         -1.946862          0.000000

