6

O              0.000000         -0.009833          0.000000
H             -0.799571         -0.580965          0.000000
H              0.799571         -0.580965          0.000000
O             -1.758801         -1.265660          0.000000
H             -2.594015         -1.783275          0.000000
H             -0.998296         -1.887864          0.000000

