6

O              0.000000         -0.009833          0.000000
H             -0.799571         -0.580965          0.000000
H              0.799571         -0.580965          0.000000
O             -2.041443         -1.459400          0.000000
H             -2.998036         -1.234824          0.000000
H             -1.943648         -2.437123          0.000000

