6

O              0.000000         -0.009833          0.000000
H             -0.799571         -0.580965          0.000000
H              0.799571         -0.580965          0.000000
O             -3.696350         -2.642281          0.000000
H             -4.665584         -2.480750          0.000000
H             -3.534819         -3.611515          0.000000

