6

O              0.000000         -0.009833          0.000000
H             -0.799571         -0.580965          0.000000
H              0.799571         -0.580965          0.000000
O             -3.926435         -2.797620          0.000000
H             -4.497567         -1.998048          0.000000
H             -4.497567         -3.597191          0.000000

