6

O              0.000000         -0.009833          0.000000
H             -0.799571         -0.580965          0.000000
H              0.799571         -0.580965          0.000000
O             -2.999356         -2.142847          0.000000
H             -3.939213         -1.856187          0.000000
H             -2.965717         -3.124872          0.000000

