6

O              0.000000         -0.009833          0.000000
H             -0.799571         -0.580965          0.000000
H              0.799571         -0.580965          0.000000
O             -2.936388         -2.091775          0.000000
H             -3.606999         -1.373592          0.000000
H             -3.398269         -2.959054          0.000000

