6

O              0.000000         -0.009833          0.000000
H             -0.799571         -0.580965          0.000000
H              0.799571         -0.580965          0.000000
O             -4.373556         -3.131701          0.000000
H             -5.293702         -3.476428          0.000000
H             -3.749049         -3.890317          0.000000

