6

O              0.000000         -0.009833          0.000000
H             -0.799571         -0.580965          0.000000
H              0.799571         -0.580965          0.000000
O             -4.637157         -3.315072          0.000000
H             -5.614880         -3.217278          0.000000
H             -4.412581         -4.271666          0.000000

