6

O              0.000000         -0.009833          0.000000
H             -0.799571         -0.580965          0.000000
H              0.799571         -0.580965          0.000000
O             -3.109506         -2.226826          0.000000
H             -4.079225         -2.385417          0.000000
H             -2.644997         -3.092700          0.000000

