6

O              0.000000         -0.009833          0.000000
H             -0.799571         -0.580965          0.000000
H              0.799571         -0.580965          0.000000
O             -4.494111         -3.205894          0.000000
H             -5.252727         -2.581387          0.000000
H             -4.838838         -4.126040          0.000000

