6

O              0.000000         -0.009833          0.000000
H             -0.799571         -0.580965          0.000000
H              0.799571         -0.580965          0.000000
O             -4.213071         -3.015099          0.000000
H             -5.182790         -3.173691          0.000000
H             -3.748563         -3.880974          0.000000

