6

O              0.000000         -0.009833          0.000000
H             -0.799571         -0.580965          0.000000
H              0.799571         -0.580965          0.000000
O             -4.492006         -3.209832          0.000000
H             -5.448600         -2.985256          0.000000
H             -4.394212         -4.187555          0.000000

