6

O              0.000000         -0.009833          0.000000
H             -0.799571         -0.580965          0.000000
H              0.799571         -0.580965          0.000000
O             -4.282154         -3.057566          0.000000
H             -5.176554         -2.650683          0.000000
H             -4.376983         -4.035581          0.000000

