6

O              0.000000         -0.009833          0.000000
H             -0.799571         -0.580965          0.000000
H              0.799571         -0.580965          0.000000
O             -3.097747         -2.210763          0.000000
H             -3.963621         -1.746255          0.000000
H             -3.256338         -3.180482          0.000000

