6

O              0.000000         -0.009833          0.000000
H             -0.799571         -0.580965          0.000000
H              0.799571         -0.580965          0.000000
O             -2.563019         -1.825788          0.000000
H             -3.279165         -1.153002          0.000000
H             -2.967188         -2.721418          0.000000

