6

O              0.000000         -0.009833          0.000000
H             -0.799571         -0.580965          0.000000
H              0.799571         -0.580965          0.000000
O             -3.082197         -2.197367          0.000000
H             -3.840813         -1.572860          0.000000
H             -3.426924         -3.117513          0.000000

