6

O              0.000000         -0.009833          0.000000
H             -0.799571         -0.580965          0.000000
H              0.799571         -0.580965          0.000000
O             -4.195038         -3.004186          0.000000
H             -5.115185         -3.348913          0.000000
H             -3.570531         -3.762802          0.000000

