6

O              0.000000         -0.009833          0.000000
H             -0.799571         -0.580965          0.000000
H              0.799571         -0.580965          0.000000
O             -2.725161         -1.942337          0.000000
H             -3.483777         -1.317830          0.000000
H             -3.069888         -2.862484          0.000000

