6

O              0.000000         -0.009833          0.000000
H             -0.799571         -0.580965          0.000000
H              0.799571         -0.580965          0.000000
O             -4.040037         -2.878765          0.000000
H             -4.611169         -2.079194          0.000000
H             -4.611169         -3.678337          0.000000

