6

O              0.000000         -0.009833          0.000000
H             -0.799571         -0.580965          0.000000
H              0.799571         -0.580965          0.000000
O             -3.223676         -2.307668          0.000000
H             -4.201691         -2.402497          0.000000
H             -2.816793         -3.202069          0.000000

