6

O              0.000000         -0.009833          0.000000
H             -0.799571         -0.580965          0.000000
H              0.799571         -0.580965          0.000000
O             -1.714935         -1.229248          0.000000
H             -2.697058         -1.259908          0.000000
H             -1.367419         -2.148345          0.000000

