6

O              0.000000         -0.009833          0.000000
H             -0.799571         -0.580965          0.000000
H              0.799571         -0.580965          0.000000
O             -2.043862         -1.453560          0.000000
H             -2.666065         -0.693054          0.000000
H             -2.561476         -2.288773          0.000000

