6

O              0.000000         -0.009833          0.000000
H             -0.799571         -0.580965          0.000000
H              0.799571         -0.580965          0.000000
O             -1.843652         -1.322629          0.000000
H             -2.813371         -1.481220          0.000000
H             -1.379143         -2.188503          0.000000

