6

O              0.000000         -0.009833          0.000000
H             -0.799571         -0.580965          0.000000
H              0.799571         -0.580965          0.000000
O             -4.460332         -3.185627          0.000000
H             -5.379429         -2.838112          0.000000
H             -4.490992         -4.167751          0.000000

