6

O              0.000000         -0.009833          0.000000
H             -0.799571         -0.580965          0.000000
H              0.799571         -0.580965          0.000000
O             -3.162020         -2.258246          0.000000
H             -4.081117         -1.910731          0.000000
H             -3.192680         -3.240369          0.000000

