6

O              0.000000         -0.009833          0.000000
H             -0.799571         -0.580965          0.000000
H              0.799571         -0.580965          0.000000
O             -1.796602         -1.286834          0.000000
H             -2.778628         -1.253195          0.000000
H             -1.509943         -2.226692          0.000000

