6

O              0.000000         -0.009833          0.000000
H             -0.799571         -0.580965          0.000000
H              0.799571         -0.580965          0.000000
O             -2.281246         -1.635885          0.000000
H             -3.238516         -1.857560          0.000000
H             -1.761101         -2.469525          0.000000

