6

O              0.000000         -0.009833          0.000000
H             -0.799571         -0.580965          0.000000
H              0.799571         -0.580965          0.000000
O             -3.691942         -2.644826          0.000000
H             -4.612089         -2.989553          0.000000
H             -3.067436         -3.403442          0.000000

