6

O              0.000000         -0.009833          0.000000
H             -0.799571         -0.580965          0.000000
H              0.799571         -0.580965          0.000000
O             -2.011404         -1.430376          0.000000
H             -2.633607         -0.669870          0.000000
H             -2.529019         -2.265589          0.000000

