6

O              0.000000         -0.009833          0.000000
H             -0.799571         -0.580965          0.000000
H              0.799571         -0.580965          0.000000
O             -1.907379         -1.369490          0.000000
H             -2.848102         -1.653298          0.000000
H             -1.333825         -2.167326          0.000000

