6

O              0.000000         -0.009833          0.000000
H             -0.799571         -0.580965          0.000000
H              0.799571         -0.580965          0.000000
O             -4.117832         -2.944120          0.000000
H             -5.095555         -2.846325          0.000000
H             -3.893256         -3.900713          0.000000

