6

O              0.000000         -0.009833          0.000000
H             -0.799571         -0.580965          0.000000
H              0.799571         -0.580965          0.000000
O             -2.915873         -2.087075          0.000000
H             -3.897996         -2.117736          0.000000
H             -2.568358         -3.006172          0.000000

