6

O              0.000000         -0.009833          0.000000
H             -0.799571         -0.580965          0.000000
H              0.799571         -0.580965          0.000000
O             -4.149270         -2.968087          0.000000
H             -5.131393         -2.998748          0.000000
H             -3.801754         -3.887184          0.000000

