6

O              0.000000         -0.009833          0.000000
H             -0.799571         -0.580965          0.000000
H              0.799571         -0.580965          0.000000
O             -3.726772         -2.667028          0.000000
H             -4.704787         -2.761857          0.000000
H             -3.319888         -3.561429          0.000000

