6

O              0.000000         -0.009833          0.000000
H             -0.799571         -0.580965          0.000000
H              0.799571         -0.580965          0.000000
O             -4.828581         -3.456098          0.000000
H             -5.769304         -3.739906          0.000000
H             -4.255027         -4.253934          0.000000

