6

O              0.000000         -0.009833          0.000000
H             -0.799571         -0.580965          0.000000
H              0.799571         -0.580965          0.000000
O             -2.168230         -1.554474          0.000000
H             -3.137949         -1.713065          0.000000
H             -1.703721         -2.420348          0.000000

