6

O              0.000000         -0.009833          0.000000
H             -0.799571         -0.580965          0.000000
H              0.799571         -0.580965          0.000000
O             -3.455776         -2.462087          0.000000
H             -4.077979         -1.701581          0.000000
H             -3.973391         -3.297300          0.000000

