6

O              0.000000         -0.009833          0.000000
H             -0.799571         -0.580965          0.000000
H              0.799571         -0.580965          0.000000
O             -2.688669         -1.924784          0.000000
H             -3.670792         -1.955444          0.000000
H             -2.341153         -2.843880          0.000000

