6

O              0.000000         -0.009833          0.000000
H             -0.799571         -0.580965          0.000000
H              0.799571         -0.580965          0.000000
O             -2.459764         -1.763401          0.000000
H             -3.417034         -1.985075          0.000000
H             -1.939619         -2.597040          0.000000

