6

O              0.000000         -0.009833          0.000000
H             -0.799571         -0.580965          0.000000
H              0.799571         -0.580965          0.000000
O             -1.957254         -1.403775          0.000000
H             -2.926973         -1.562366          0.000000
H             -1.492746         -2.269649          0.000000

