6

O              0.000000         -0.009833          0.000000
H             -0.799571         -0.580965          0.000000
H              0.799571         -0.580965          0.000000
O             -1.666248         -1.194471          0.000000
H             -2.648371         -1.225132          0.000000
H             -1.318733         -2.113568          0.000000

