6

O              0.000000         -0.009833          0.000000
H             -0.799571         -0.580965          0.000000
H              0.799571         -0.580965          0.000000
O             -1.955450         -1.404454          0.000000
H             -2.875597         -1.749181          0.000000
H             -1.330943         -2.163069          0.000000

