6

O              0.000000         -0.009833          0.000000
H             -0.799571         -0.580965          0.000000
H              0.799571         -0.580965          0.000000
O             -4.216115         -3.012764          0.000000
H             -5.172709         -2.788188          0.000000
H             -4.118321         -3.990487          0.000000

