6

O              0.000000         -0.009833          0.000000
H             -0.799571         -0.580965          0.000000
H              0.799571         -0.580965          0.000000
O             -2.644331         -1.882474          0.000000
H             -3.266534         -1.121968          0.000000
H             -3.161946         -2.717687          0.000000

