6

O              0.000000         -0.009833          0.000000
H             -0.799571         -0.580965          0.000000
H              0.799571         -0.580965          0.000000
O             -3.512798         -2.517457          0.000000
H             -4.408428         -2.921627          0.000000
H             -2.840012         -3.233604          0.000000

