6

O              0.000000         -0.009833          0.000000
H             -0.799571         -0.580965          0.000000
H              0.799571         -0.580965          0.000000
O             -4.099469         -2.933954          0.000000
H             -5.069188         -3.092545          0.000000
H             -3.634960         -3.799828          0.000000

