6

O              0.000000         -0.009833          0.000000
H             -0.799571         -0.580965          0.000000
H              0.799571         -0.580965          0.000000
O             -3.907326         -2.792980          0.000000
H             -4.876560         -2.631449          0.000000
H             -3.745795         -3.762214          0.000000

