6

O              0.000000         -0.009833          0.000000
H             -0.799571         -0.580965          0.000000
H              0.799571         -0.580965          0.000000
O             -2.021584         -1.450409          0.000000
H             -2.978854         -1.672084          0.000000
H             -1.501439         -2.284049          0.000000

