6

O              0.000000         -0.009833          0.000000
H             -0.799571         -0.580965          0.000000
H              0.799571         -0.580965          0.000000
O             -4.006262         -2.860498          0.000000
H             -4.900663         -2.453614          0.000000
H             -4.101091         -3.838513          0.000000

