6

O              0.000000         -0.009833          0.000000
H             -0.799571         -0.580965          0.000000
H              0.799571         -0.580965          0.000000
O             -3.251860         -2.332149          0.000000
H             -4.087073         -2.849763          0.000000
H             -2.491354         -2.954352          0.000000

