6

O              0.000000         -0.009833          0.000000
H             -0.799571         -0.580965          0.000000
H              0.799571         -0.580965          0.000000
O             -2.796808         -2.007587          0.000000
H             -3.596379         -2.578719          0.000000
H             -1.997236         -2.578719          0.000000

