6

O              0.000000         -0.009833          0.000000
H             -0.799571         -0.580965          0.000000
H              0.799571         -0.580965          0.000000
O             -3.806160         -2.725785          0.000000
H             -4.746883         -3.009593          0.000000
H             -3.232606         -3.523621          0.000000

