6

O              0.000000         -0.009833          0.000000
H             -0.799571         -0.580965          0.000000
H              0.799571         -0.580965          0.000000
O             -4.881500         -3.488047          0.000000
H             -5.838093         -3.263471          0.000000
H             -4.783705         -4.465770          0.000000

