6

O              0.000000         -0.009833          0.000000
H             -0.799571         -0.580965          0.000000
H              0.799571         -0.580965          0.000000
O             -4.146967         -2.969223          0.000000
H             -5.087690         -3.253031          0.000000
H             -3.573413         -3.767059          0.000000

