6

O              0.000000         -0.009833          0.000000
H             -0.799571         -0.580965          0.000000
H              0.799571         -0.580965          0.000000
O             -2.005941         -1.438552          0.000000
H             -2.975660         -1.597143          0.000000
H             -1.541432         -2.304426          0.000000

