6

O              0.000000         -0.009833          0.000000
H             -0.799571         -0.580965          0.000000
H              0.799571         -0.580965          0.000000
O             -3.179717         -2.266294          0.000000
H             -3.895863         -1.593508          0.000000
H             -3.583886         -3.161924          0.000000

