6

O              0.000000         -0.009833          0.000000
H             -0.799571         -0.580965          0.000000
H              0.799571         -0.580965          0.000000
O             -2.513507         -1.793442          0.000000
H             -3.379381         -1.328933          0.000000
H             -2.672098         -2.763161          0.000000

