6

O              0.000000         -0.009833          0.000000
H             -0.799571         -0.580965          0.000000
H              0.799571         -0.580965          0.000000
O             -2.660497         -1.894706          0.000000
H             -3.331108         -1.176523          0.000000
H             -3.122378         -2.761985          0.000000

