6

O              0.000000         -0.009833          0.000000
H             -0.799571         -0.580965          0.000000
H              0.799571         -0.580965          0.000000
O             -4.176264         -2.992929          0.000000
H             -4.975836         -3.564061          0.000000
H             -3.376693         -3.564061          0.000000

