6

O              0.000000         -0.009833          0.000000
H             -0.799571         -0.580965          0.000000
H              0.799571         -0.580965          0.000000
O             -2.835749         -2.028331          0.000000
H             -3.813472         -1.930537          0.000000
H             -2.611173         -2.984925          0.000000

