6

O              0.000000         -0.009833          0.000000
H             -0.799571         -0.580965          0.000000
H              0.799571         -0.580965          0.000000
O             -4.688179         -3.346805          0.000000
H             -5.554053         -2.882297          0.000000
H             -4.846770         -4.316524          0.000000

