6

O              0.000000         -0.009833          0.000000
H             -0.799571         -0.580965          0.000000
H              0.799571         -0.580965          0.000000
O             -3.937180         -2.818031          0.000000
H             -4.906899         -2.976622          0.000000
H             -3.472671         -3.683905          0.000000

