6

O              0.000000         -0.009833          0.000000
H             -0.799571         -0.580965          0.000000
H              0.799571         -0.580965          0.000000
O             -3.756231         -2.691341          0.000000
H             -4.651861         -3.095510          0.000000
H             -3.083446         -3.407488          0.000000

