6

O              0.000000         -0.009833          0.000000
H             -0.799571         -0.580965          0.000000
H              0.799571         -0.580965          0.000000
O             -3.780375         -2.693289          0.000000
H             -4.351507         -1.893718          0.000000
H             -4.351507         -3.492861          0.000000

