6

O              0.000000         -0.009833          0.000000
H             -0.799571         -0.580965          0.000000
H              0.799571         -0.580965          0.000000
O             -2.155453         -1.540049          0.000000
H             -3.095311         -1.253389          0.000000
H             -2.121814         -2.522075          0.000000

