6

O              0.000000         -0.009833          0.000000
H             -0.799571         -0.580965          0.000000
H              0.799571         -0.580965          0.000000
O             -2.587751         -1.856698          0.000000
H             -3.483381         -2.260867          0.000000
H             -1.914965         -2.572845          0.000000

