6

O              0.000000         -0.009833          0.000000
H             -0.799571         -0.580965          0.000000
H              0.799571         -0.580965          0.000000
O             -3.760299         -2.689498          0.000000
H             -4.742325         -2.655859          0.000000
H             -3.473639         -3.629356          0.000000

