6

O              0.000000         -0.009833          0.000000
H             -0.799571         -0.580965          0.000000
H              0.799571         -0.580965          0.000000
O             -2.546790         -1.814195          0.000000
H             -3.262936         -1.141410          0.000000
H             -2.950959         -2.709826          0.000000

