6

O              0.000000         -0.009833          0.000000
H             -0.799571         -0.580965          0.000000
H              0.799571         -0.580965          0.000000
O             -4.120993         -2.938645          0.000000
H             -4.837139         -2.265860          0.000000
H             -4.525162         -3.834275          0.000000

