6

O              0.000000         -0.009833          0.000000
H             -0.799571         -0.580965          0.000000
H              0.799571         -0.580965          0.000000
O             -1.685833         -1.202236          0.000000
H             -2.551707         -0.737728          0.000000
H             -1.844424         -2.171955          0.000000

