6

O              0.000000         -0.009833          0.000000
H             -0.799571         -0.580965          0.000000
H              0.799571         -0.580965          0.000000
O             -1.678297         -1.207636          0.000000
H             -2.545576         -1.669517          0.000000
H             -0.960114         -1.878247          0.000000

