6

O              0.000000         -0.009833          0.000000
H             -0.799571         -0.580965          0.000000
H              0.799571         -0.580965          0.000000
O             -2.530729         -1.801328          0.000000
H             -3.152932         -1.040822          0.000000
H             -3.048343         -2.636541          0.000000

