6

O              0.000000         -0.009833          0.000000
H             -0.799571         -0.580965          0.000000
H              0.799571         -0.580965          0.000000
O             -2.813680         -2.019158          0.000000
H             -3.648893         -2.536772          0.000000
H             -2.053174         -2.641361          0.000000

