6

O              0.000000         -0.009833          0.000000
H             -0.799571         -0.580965          0.000000
H              0.799571         -0.580965          0.000000
O             -4.102921         -2.931121          0.000000
H             -5.042779         -2.644461          0.000000
H             -4.069282         -3.913146          0.000000

