6

O              0.000000         -0.009833          0.000000
H             -0.799571         -0.580965          0.000000
H              0.799571         -0.580965          0.000000
O             -1.860995         -1.333578          0.000000
H             -2.843118         -1.364239          0.000000
H             -1.513479         -2.252675          0.000000

