6

O              0.000000         -0.009833          0.000000
H             -0.799571         -0.580965          0.000000
H              0.799571         -0.580965          0.000000
O             -3.015176         -2.154936          0.000000
H             -3.971770         -1.930360          0.000000
H             -2.917382         -3.132659          0.000000

