6

O              0.000000         -0.009833          0.000000
H             -0.799571         -0.580965          0.000000
H              0.799571         -0.580965          0.000000
O             -4.380509         -3.124748          0.000000
H             -5.139124         -2.500241          0.000000
H             -4.725236         -4.044895          0.000000

