6

O              0.000000         -0.009833          0.000000
H             -0.799571         -0.580965          0.000000
H              0.799571         -0.580965          0.000000
O             -3.953409         -2.829623          0.000000
H             -4.923128         -2.988215          0.000000
H             -3.488900         -3.695497          0.000000

