6

O              0.000000         -0.009833          0.000000
H             -0.799571         -0.580965          0.000000
H              0.799571         -0.580965          0.000000
O             -4.326673         -3.096245          0.000000
H             -5.296392         -3.254837          0.000000
H             -3.862165         -3.962119          0.000000

