6

O              0.000000         -0.009833          0.000000
H             -0.799571         -0.580965          0.000000
H              0.799571         -0.580965          0.000000
O             -2.799353         -2.007252          0.000000
H             -3.719499         -2.351978          0.000000
H             -2.174846         -2.765867          0.000000

