6

O              0.000000         -0.009833          0.000000
H             -0.799571         -0.580965          0.000000
H              0.799571         -0.580965          0.000000
O             -4.394193         -3.140748          0.000000
H             -5.363427         -2.979217          0.000000
H             -4.232662         -4.109982          0.000000

