6

O              0.000000         -0.009833          0.000000
H             -0.799571         -0.580965          0.000000
H              0.799571         -0.580965          0.000000
O             -4.572711         -3.268263          0.000000
H             -5.541945         -3.106732          0.000000
H             -4.411180         -4.237497          0.000000

