6

O              0.000000         -0.009833          0.000000
H             -0.799571         -0.580965          0.000000
H              0.799571         -0.580965          0.000000
O             -3.793724         -2.711834          0.000000
H             -4.762957         -2.550303          0.000000
H             -3.632193         -3.681068          0.000000

