6

O              0.000000         -0.009833          0.000000
H             -0.799571         -0.580965          0.000000
H              0.799571         -0.580965          0.000000
O             -3.293508         -2.345521          0.000000
H             -3.864640         -1.545950          0.000000
H             -3.864640         -3.145093          0.000000

