6

O              0.000000         -0.009833          0.000000
H             -0.799571         -0.580965          0.000000
H              0.799571         -0.580965          0.000000
O             -3.447247         -2.471193          0.000000
H             -4.314526         -2.933074          0.000000
H             -2.729064         -3.141804          0.000000

