6

O              0.000000         -0.009833          0.000000
H             -0.799571         -0.580965          0.000000
H              0.799571         -0.580965          0.000000
O             -2.621451         -1.879550          0.000000
H             -3.562173         -2.163358          0.000000
H             -2.047897         -2.677386          0.000000

