6

O              0.000000         -0.009833          0.000000
H             -0.799571         -0.580965          0.000000
H              0.799571         -0.580965          0.000000
O             -2.867187         -2.052298          0.000000
H             -3.849310         -2.082959          0.000000
H             -2.519671         -2.971395          0.000000

