6

O              0.000000         -0.009833          0.000000
H             -0.799571         -0.580965          0.000000
H              0.799571         -0.580965          0.000000
O             -2.213211         -1.590244          0.000000
H             -3.048424         -2.107859          0.000000
H             -1.452705         -2.212448          0.000000

