6

O              0.000000         -0.009833          0.000000
H             -0.799571         -0.580965          0.000000
H              0.799571         -0.580965          0.000000
O             -3.536857         -2.520689          0.000000
H             -4.207468         -1.802505          0.000000
H             -3.998738         -3.387967          0.000000

