6

O              0.000000         -0.009833          0.000000
H             -0.799571         -0.580965          0.000000
H              0.799571         -0.580965          0.000000
O             -4.048978         -2.899856          0.000000
H             -4.969125         -3.244583          0.000000
H             -3.424471         -3.658471          0.000000

