6

O              0.000000         -0.009833          0.000000
H             -0.799571         -0.580965          0.000000
H              0.799571         -0.580965          0.000000
O             -3.791687         -2.713397          0.000000
H             -4.769702         -2.808226          0.000000
H             -3.384804         -3.607798          0.000000

