6

O              0.000000         -0.009833          0.000000
H             -0.799571         -0.580965          0.000000
H              0.799571         -0.580965          0.000000
O             -4.668594         -3.339040          0.000000
H             -5.650717         -3.369701          0.000000
H             -4.321079         -4.258137          0.000000

