6

O              0.000000         -0.009833          0.000000
H             -0.799571         -0.580965          0.000000
H              0.799571         -0.580965          0.000000
O             -4.575507         -3.262594          0.000000
H             -5.246118         -2.544410          0.000000
H             -5.037388         -4.129872          0.000000

