6

O              0.000000         -0.009833          0.000000
H             -0.799571         -0.580965          0.000000
H              0.799571         -0.580965          0.000000
O             -3.333005         -2.390110          0.000000
H             -4.168218         -2.907725          0.000000
H             -2.572499         -3.012314          0.000000

