6

O              0.000000         -0.009833          0.000000
H             -0.799571         -0.580965          0.000000
H              0.799571         -0.580965          0.000000
O             -2.977244         -2.134912          0.000000
H             -3.872874         -2.539082          0.000000
H             -2.304458         -2.851059          0.000000

