6

O              0.000000         -0.009833          0.000000
H             -0.799571         -0.580965          0.000000
H              0.799571         -0.580965          0.000000
O             -2.480031         -1.771894          0.000000
H             -3.419889         -1.485235          0.000000
H             -2.446392         -2.753920          0.000000

