6

O              0.000000         -0.009833          0.000000
H             -0.799571         -0.580965          0.000000
H              0.799571         -0.580965          0.000000
O             -4.798425         -3.431778          0.000000
H             -5.780549         -3.462439          0.000000
H             -4.450910         -4.350875          0.000000

