6

O              0.000000         -0.009833          0.000000
H             -0.799571         -0.580965          0.000000
H              0.799571         -0.580965          0.000000
O             -2.965083         -2.121477          0.000000
H             -3.947109         -2.087838          0.000000
H             -2.678423         -3.061335          0.000000

