6

O              0.000000         -0.009833          0.000000
H             -0.799571         -0.580965          0.000000
H              0.799571         -0.580965          0.000000
O             -2.575589         -1.843263          0.000000
H             -3.557615         -1.809624          0.000000
H             -2.288930         -2.783121          0.000000

