6

O              0.000000         -0.009833          0.000000
H             -0.799571         -0.580965          0.000000
H              0.799571         -0.580965          0.000000
O             -4.023060         -2.870936          0.000000
H             -4.856700         -2.350791          0.000000
H             -4.244734         -3.828206          0.000000

