6

O              0.000000         -0.009833          0.000000
H             -0.799571         -0.580965          0.000000
H              0.799571         -0.580965          0.000000
O             -3.487920         -2.487173          0.000000
H             -4.246535         -1.862667          0.000000
H             -3.832646         -3.407320          0.000000

