6

O              0.000000         -0.009833          0.000000
H             -0.799571         -0.580965          0.000000
H              0.799571         -0.580965          0.000000
O             -2.237312         -1.596941          0.000000
H             -3.131713         -1.190058          0.000000
H             -2.332141         -2.574956          0.000000

