6

O              0.000000         -0.009833          0.000000
H             -0.799571         -0.580965          0.000000
H              0.799571         -0.580965          0.000000
O             -2.902697         -2.072223          0.000000
H             -3.797097         -1.665340          0.000000
H             -2.997526         -3.050239          0.000000

