6

O              0.000000         -0.009833          0.000000
H             -0.799571         -0.580965          0.000000
H              0.799571         -0.580965          0.000000
O             -3.853605         -2.760895          0.000000
H             -4.749235         -3.165064          0.000000
H             -3.180819         -3.477041          0.000000

