6

O              0.000000         -0.009833          0.000000
H             -0.799571         -0.580965          0.000000
H              0.799571         -0.580965          0.000000
O             -3.553086         -2.532281          0.000000
H             -4.223697         -1.814098          0.000000
H             -4.014967         -3.399560          0.000000

