6

O              0.000000         -0.009833          0.000000
H             -0.799571         -0.580965          0.000000
H              0.799571         -0.580965          0.000000
O             -3.535284         -2.524868          0.000000
H             -4.454381         -2.177353          0.000000
H             -3.565945         -3.506991          0.000000

