6

O              0.000000         -0.009833          0.000000
H             -0.799571         -0.580965          0.000000
H              0.799571         -0.580965          0.000000
O             -2.303545         -1.638393          0.000000
H             -2.874677         -0.838822          0.000000
H             -2.874677         -2.437965          0.000000

