6

O              0.000000         -0.009833          0.000000
H             -0.799571         -0.580965          0.000000
H              0.799571         -0.580965          0.000000
O             -4.070055         -2.908433          0.000000
H             -5.026649         -2.683857          0.000000
H             -3.972261         -3.886156          0.000000

