6

O              0.000000         -0.009833          0.000000
H             -0.799571         -0.580965          0.000000
H              0.799571         -0.580965          0.000000
O             -3.096729         -2.212400          0.000000
H             -4.036587         -1.925741          0.000000
H             -3.063090         -3.194426          0.000000

