6

O              0.000000         -0.009833          0.000000
H             -0.799571         -0.580965          0.000000
H              0.799571         -0.580965          0.000000
O             -4.800355         -3.430085          0.000000
H             -5.756949         -3.205509          0.000000
H             -4.702561         -4.407808          0.000000

