6

O              0.000000         -0.009833          0.000000
H             -0.799571         -0.580965          0.000000
H              0.799571         -0.580965          0.000000
O             -1.823074         -1.312051          0.000000
H             -2.622645         -1.883183          0.000000
H             -1.023502         -1.883183          0.000000

