6

O              0.000000         -0.009833          0.000000
H             -0.799571         -0.580965          0.000000
H              0.799571         -0.580965          0.000000
O             -2.173693         -1.546298          0.000000
H             -2.795896         -0.785792          0.000000
H             -2.691307         -2.381511          0.000000

