6

O              0.000000         -0.009833          0.000000
H             -0.799571         -0.580965          0.000000
H              0.799571         -0.580965          0.000000
O             -3.144098         -2.248584          0.000000
H             -4.121821         -2.150790          0.000000
H             -2.919522         -3.205178          0.000000

