6

O              0.000000         -0.009833          0.000000
H             -0.799571         -0.580965          0.000000
H              0.799571         -0.580965          0.000000
O             -2.838350         -2.024701          0.000000
H             -3.671990         -1.504556          0.000000
H             -3.060025         -2.981971          0.000000

