6

O              0.000000         -0.009833          0.000000
H             -0.799571         -0.580965          0.000000
H              0.799571         -0.580965          0.000000
O             -3.568651         -2.546353          0.000000
H             -4.402291         -2.026208          0.000000
H             -3.790325         -3.503623          0.000000

