6

O              0.000000         -0.009833          0.000000
H             -0.799571         -0.580965          0.000000
H              0.799571         -0.580965          0.000000
O             -2.189608         -1.559792          0.000000
H             -2.948223         -0.935286          0.000000
H             -2.534335         -2.479939          0.000000

