6

O              0.000000         -0.009833          0.000000
H             -0.799571         -0.580965          0.000000
H              0.799571         -0.580965          0.000000
O             -3.336125         -2.389383          0.000000
H             -4.293395         -2.611057          0.000000
H             -2.815980         -3.223022          0.000000

