6

O              0.000000         -0.009833          0.000000
H             -0.799571         -0.580965          0.000000
H              0.799571         -0.580965          0.000000
O             -2.038399         -1.461736          0.000000
H             -3.008118         -1.620327          0.000000
H             -1.573890         -2.327610          0.000000

