6

O              0.000000         -0.009833          0.000000
H             -0.799571         -0.580965          0.000000
H              0.799571         -0.580965          0.000000
O             -2.282400         -1.635317          0.000000
H             -3.260415         -1.730146          0.000000
H             -1.875516         -2.529717          0.000000

