6

O              0.000000         -0.009833          0.000000
H             -0.799571         -0.580965          0.000000
H              0.799571         -0.580965          0.000000
O             -3.725016         -2.667824          0.000000
H             -4.665738         -2.951632          0.000000
H             -3.151462         -3.465660          0.000000

