6

O              0.000000         -0.009833          0.000000
H             -0.799571         -0.580965          0.000000
H              0.799571         -0.580965          0.000000
O             -3.516866         -2.515614          0.000000
H             -4.498891         -2.481976          0.000000
H             -3.230206         -3.455472          0.000000

