6

O              0.000000         -0.009833          0.000000
H             -0.799571         -0.580965          0.000000
H              0.799571         -0.580965          0.000000
O             -3.682917         -2.625019          0.000000
H             -4.353528         -1.906836          0.000000
H             -4.144798         -3.492298          0.000000

