6

O              0.000000         -0.009833          0.000000
H             -0.799571         -0.580965          0.000000
H              0.799571         -0.580965          0.000000
O             -3.453765         -2.467430          0.000000
H             -4.393623         -2.180770          0.000000
H             -3.420126         -3.449456          0.000000

