6

O              0.000000         -0.009833          0.000000
H             -0.799571         -0.580965          0.000000
H              0.799571         -0.580965          0.000000
O             -3.889607         -2.782611          0.000000
H             -4.871730         -2.813272          0.000000
H             -3.542092         -3.701708          0.000000

