6

O              0.000000         -0.009833          0.000000
H             -0.799571         -0.580965          0.000000
H              0.799571         -0.580965          0.000000
O             -4.639493         -3.312028          0.000000
H             -5.505367         -2.847520          0.000000
H             -4.798084         -4.281747          0.000000

