6

O              0.000000         -0.009833          0.000000
H             -0.799571         -0.580965          0.000000
H              0.799571         -0.580965          0.000000
O             -2.801157         -2.006573          0.000000
H             -3.770876         -2.165164          0.000000
H             -2.336648         -2.872447          0.000000

