6

O              0.000000         -0.009833          0.000000
H             -0.799571         -0.580965          0.000000
H              0.799571         -0.580965          0.000000
O             -2.396548         -1.716123          0.000000
H             -3.378672         -1.746783          0.000000
H             -2.049033         -2.635220          0.000000

