6

O              0.000000         -0.009833          0.000000
H             -0.799571         -0.580965          0.000000
H              0.799571         -0.580965          0.000000
O             -4.713101         -3.375390          0.000000
H             -5.580380         -3.837270          0.000000
H             -3.994918         -4.046000          0.000000

