6

O              0.000000         -0.009833          0.000000
H             -0.799571         -0.580965          0.000000
H              0.799571         -0.580965          0.000000
O             -1.779850         -1.275617          0.000000
H             -2.761973         -1.306278          0.000000
H             -1.432335         -2.194714          0.000000

