6

O              0.000000         -0.009833          0.000000
H             -0.799571         -0.580965          0.000000
H              0.799571         -0.580965          0.000000
O             -3.207447         -2.296076          0.000000
H             -4.185462         -2.390905          0.000000
H             -2.800564         -3.190476          0.000000

