6

O              0.000000         -0.009833          0.000000
H             -0.799571         -0.580965          0.000000
H              0.799571         -0.580965          0.000000
O             -2.001592         -1.439566          0.000000
H             -2.801163         -2.010698          0.000000
H             -1.202020         -2.010698          0.000000

