6

O              0.000000         -0.009833          0.000000
H             -0.799571         -0.580965          0.000000
H              0.799571         -0.580965          0.000000
O             -2.822870         -2.009346          0.000000
H             -3.394002         -1.209774          0.000000
H             -3.394002         -2.808917          0.000000

