6

O              0.000000         -0.009833          0.000000
H             -0.799571         -0.580965          0.000000
H              0.799571         -0.580965          0.000000
O             -3.435198         -2.458028          0.000000
H             -4.417321         -2.488688          0.000000
H             -3.087682         -3.377125          0.000000

