6

O              0.000000         -0.009833          0.000000
H             -0.799571         -0.580965          0.000000
H              0.799571         -0.580965          0.000000
O             -4.491097         -3.210742          0.000000
H             -5.468820         -3.112948          0.000000
H             -4.266520         -4.167336          0.000000

