6

O              0.000000         -0.009833          0.000000
H             -0.799571         -0.580965          0.000000
H              0.799571         -0.580965          0.000000
O             -2.773848         -1.977114          0.000000
H             -3.532464         -1.352607          0.000000
H             -3.118575         -2.897260          0.000000

