6

O              0.000000         -0.009833          0.000000
H             -0.799571         -0.580965          0.000000
H              0.799571         -0.580965          0.000000
O             -2.253201         -1.609079          0.000000
H             -3.172298         -1.261564          0.000000
H             -2.283862         -2.591203          0.000000

