6

O              0.000000         -0.009833          0.000000
H             -0.799571         -0.580965          0.000000
H              0.799571         -0.580965          0.000000
O             -3.576438         -2.563994          0.000000
H             -4.411651         -3.081609          0.000000
H             -2.815932         -3.186198          0.000000

