6

O              0.000000         -0.009833          0.000000
H             -0.799571         -0.580965          0.000000
H              0.799571         -0.580965          0.000000
O             -2.270752         -1.617754          0.000000
H             -3.029368         -0.993247          0.000000
H             -2.615479         -2.537900          0.000000

