6

O              0.000000         -0.009833          0.000000
H             -0.799571         -0.580965          0.000000
H              0.799571         -0.580965          0.000000
O             -3.244821         -2.310745          0.000000
H             -3.815953         -1.511173          0.000000
H             -3.815953         -3.110316          0.000000

