6

O              0.000000         -0.009833          0.000000
H             -0.799571         -0.580965          0.000000
H              0.799571         -0.580965          0.000000
O             -2.043883         -1.452917          0.000000
H             -2.615015         -0.653345          0.000000
H             -2.615015         -2.252488          0.000000

