6

O              0.000000         -0.009833          0.000000
H             -0.799571         -0.580965          0.000000
H              0.799571         -0.580965          0.000000
O             -4.378812         -3.128189          0.000000
H             -5.318670         -2.841530          0.000000
H             -4.345173         -4.110215          0.000000

