6

O              0.000000         -0.009833          0.000000
H             -0.799571         -0.580965          0.000000
H              0.799571         -0.580965          0.000000
O             -2.058080         -1.470495          0.000000
H             -2.997937         -1.183836          0.000000
H             -2.024441         -2.452521          0.000000

