6

O              0.000000         -0.009833          0.000000
H             -0.799571         -0.580965          0.000000
H              0.799571         -0.580965          0.000000
O             -4.573934         -3.266773          0.000000
H             -5.493031         -2.919258          0.000000
H             -4.604595         -4.248896          0.000000

