6

O              0.000000         -0.009833          0.000000
H             -0.799571         -0.580965          0.000000
H              0.799571         -0.580965          0.000000
O             -4.702542         -3.361001          0.000000
H             -5.671776         -3.199470          0.000000
H             -4.541011         -4.330235          0.000000

