6

O              0.000000         -0.009833          0.000000
H             -0.799571         -0.580965          0.000000
H              0.799571         -0.580965          0.000000
O             -2.319585         -1.651904          0.000000
H             -3.035732         -0.979118          0.000000
H             -2.723754         -2.547534          0.000000

