6

O              0.000000         -0.009833          0.000000
H             -0.799571         -0.580965          0.000000
H              0.799571         -0.580965          0.000000
O             -2.944786         -2.111728          0.000000
H             -3.840416         -2.515897          0.000000
H             -2.272001         -2.827874          0.000000

