6

O              0.000000         -0.009833          0.000000
H             -0.799571         -0.580965          0.000000
H              0.799571         -0.580965          0.000000
O             -2.269770         -1.620125          0.000000
H             -3.164170         -1.213242          0.000000
H             -2.364599         -2.598140          0.000000

