6

O              0.000000         -0.009833          0.000000
H             -0.799571         -0.580965          0.000000
H              0.799571         -0.580965          0.000000
O             -3.073982         -2.204571          0.000000
H             -3.941261         -2.666452          0.000000
H             -2.355799         -2.875182          0.000000

