6

O              0.000000         -0.009833          0.000000
H             -0.799571         -0.580965          0.000000
H              0.799571         -0.580965          0.000000
O             -3.675713         -2.633234          0.000000
H             -4.595860         -2.977961          0.000000
H             -3.051207         -3.391849          0.000000

