6

O              0.000000         -0.009833          0.000000
H             -0.799571         -0.580965          0.000000
H              0.799571         -0.580965          0.000000
O             -1.735345         -1.234582          0.000000
H             -2.451491         -0.561797          0.000000
H             -2.139514         -2.130212          0.000000

