6

O              0.000000         -0.009833          0.000000
H             -0.799571         -0.580965          0.000000
H              0.799571         -0.580965          0.000000
O             -3.095881         -2.213367          0.000000
H             -4.065115         -2.051836          0.000000
H             -2.934350         -3.182601          0.000000

