6

O              0.000000         -0.009833          0.000000
H             -0.799571         -0.580965          0.000000
H              0.799571         -0.580965          0.000000
O             -4.452156         -3.189998          0.000000
H             -5.251727         -3.761130          0.000000
H             -3.652584         -3.761130          0.000000

