6

O              0.000000         -0.009833          0.000000
H             -0.799571         -0.580965          0.000000
H              0.799571         -0.580965          0.000000
O             -2.773435         -1.978332          0.000000
H             -3.607075         -1.458187          0.000000
H             -2.995109         -2.935602          0.000000

