6

O              0.000000         -0.009833          0.000000
H             -0.799571         -0.580965          0.000000
H              0.799571         -0.580965          0.000000
O             -1.989712         -1.426959          0.000000
H             -2.959431         -1.585550          0.000000
H             -1.525203         -2.292833          0.000000

