6

O              0.000000         -0.009833          0.000000
H             -0.799571         -0.580965          0.000000
H              0.799571         -0.580965          0.000000
O             -4.443728         -3.174558          0.000000
H             -5.383586         -2.887899          0.000000
H             -4.410089         -4.156584          0.000000

