6

O              0.000000         -0.009833          0.000000
H             -0.799571         -0.580965          0.000000
H              0.799571         -0.580965          0.000000
O             -3.843259         -2.745644          0.000000
H             -4.783116         -2.458985          0.000000
H             -3.809620         -3.727670          0.000000

