6

O              0.000000         -0.009833          0.000000
H             -0.799571         -0.580965          0.000000
H              0.799571         -0.580965          0.000000
O             -4.294216         -3.073061          0.000000
H             -5.263935         -3.231652          0.000000
H             -3.829707         -3.938935          0.000000

