6

O              0.000000         -0.009833          0.000000
H             -0.799571         -0.580965          0.000000
H              0.799571         -0.580965          0.000000
O             -2.157150         -1.536608          0.000000
H             -2.915766         -0.912101          0.000000
H             -2.501877         -2.456754          0.000000

