6

O              0.000000         -0.009833          0.000000
H             -0.799571         -0.580965          0.000000
H              0.799571         -0.580965          0.000000
O             -4.770338         -3.400417          0.000000
H             -5.341470         -2.600846          0.000000
H             -5.341470         -4.199989          0.000000

