6

O              0.000000         -0.009833          0.000000
H             -0.799571         -0.580965          0.000000
H              0.799571         -0.580965          0.000000
O             -4.343470         -3.107534          0.000000
H             -5.321485         -3.202363          0.000000
H             -3.936587         -4.001935          0.000000

