6

O              0.000000         -0.009833          0.000000
H             -0.799571         -0.580965          0.000000
H              0.799571         -0.580965          0.000000
O             -2.753584         -1.971153          0.000000
H             -3.735707         -2.001813          0.000000
H             -2.406069         -2.890250          0.000000

