6

O              0.000000         -0.009833          0.000000
H             -0.799571         -0.580965          0.000000
H              0.799571         -0.580965          0.000000
O             -2.417147         -1.719539          0.000000
H             -2.988279         -0.919968          0.000000
H             -2.988279         -2.519110          0.000000

