6

O              0.000000         -0.009833          0.000000
H             -0.799571         -0.580965          0.000000
H              0.799571         -0.580965          0.000000
O             -4.492789         -3.208812          0.000000
H             -5.411886         -2.861296          0.000000
H             -4.523450         -4.190935          0.000000

