6

O              0.000000         -0.009833          0.000000
H             -0.799571         -0.580965          0.000000
H              0.799571         -0.580965          0.000000
O             -2.312486         -1.659484          0.000000
H             -3.232632         -2.004210          0.000000
H             -1.687979         -2.418099          0.000000

