6

O              0.000000         -0.009833          0.000000
H             -0.799571         -0.580965          0.000000
H              0.799571         -0.580965          0.000000
O             -1.750749         -1.248605          0.000000
H             -2.616623         -0.784097          0.000000
H             -1.909340         -2.218324          0.000000

