6

O              0.000000         -0.009833          0.000000
H             -0.799571         -0.580965          0.000000
H              0.799571         -0.580965          0.000000
O             -2.141067         -1.524389          0.000000
H             -2.857214         -0.851603          0.000000
H             -2.545236         -2.420019          0.000000

