6

O              0.000000         -0.009833          0.000000
H             -0.799571         -0.580965          0.000000
H              0.799571         -0.580965          0.000000
O             -2.628102         -1.870882          0.000000
H             -3.250306         -1.110376          0.000000
H             -3.145717         -2.706095          0.000000

