6

O              0.000000         -0.009833          0.000000
H             -0.799571         -0.580965          0.000000
H              0.799571         -0.580965          0.000000
O             -3.238751         -2.319829          0.000000
H             -4.196022         -2.541504          0.000000
H             -2.718606         -3.153469          0.000000

