6

O              0.000000         -0.009833          0.000000
H             -0.799571         -0.580965          0.000000
H              0.799571         -0.580965          0.000000
O             -2.155828         -1.539526          0.000000
H             -3.074925         -1.192010          0.000000
H             -2.186489         -2.521649          0.000000

