6

O              0.000000         -0.009833          0.000000
H             -0.799571         -0.580965          0.000000
H              0.799571         -0.580965          0.000000
O             -1.718970         -1.223617          0.000000
H             -2.477585         -0.599110          0.000000
H             -2.063697         -2.143763          0.000000

