6

O              0.000000         -0.009833          0.000000
H             -0.799571         -0.580965          0.000000
H              0.799571         -0.580965          0.000000
O             -2.951044         -2.107547          0.000000
H             -3.870141         -1.760031          0.000000
H             -2.981705         -3.089670          0.000000

