6

O              0.000000         -0.009833          0.000000
H             -0.799571         -0.580965          0.000000
H              0.799571         -0.580965          0.000000
O             -3.177465         -2.270859          0.000000
H             -4.134059         -2.046283          0.000000
H             -3.079671         -3.248582          0.000000

