6

O              0.000000         -0.009833          0.000000
H             -0.799571         -0.580965          0.000000
H              0.799571         -0.580965          0.000000
O             -3.958893         -2.820804          0.000000
H             -4.530025         -2.021233          0.000000
H             -4.530025         -3.620376          0.000000

