6

O              0.000000         -0.009833          0.000000
H             -0.799571         -0.580965          0.000000
H              0.799571         -0.580965          0.000000
O             -2.278767         -1.636550          0.000000
H             -3.146045         -2.098431          0.000000
H             -1.560583         -2.307161          0.000000

