6

O              0.000000         -0.009833          0.000000
H             -0.799571         -0.580965          0.000000
H              0.799571         -0.580965          0.000000
O             -4.849450         -3.464365          0.000000
H             -5.789308         -3.177705          0.000000
H             -4.815811         -4.446390          0.000000

