6

O              0.000000         -0.009833          0.000000
H             -0.799571         -0.580965          0.000000
H              0.799571         -0.580965          0.000000
O             -2.638868         -1.890650          0.000000
H             -3.608587         -2.049241          0.000000
H             -2.174359         -2.756524          0.000000

