6

O              0.000000         -0.009833          0.000000
H             -0.799571         -0.580965          0.000000
H              0.799571         -0.580965          0.000000
O             -3.439547         -2.450495          0.000000
H             -4.061750         -1.689989          0.000000
H             -3.957162         -3.285708          0.000000

