6

O              0.000000         -0.009833          0.000000
H             -0.799571         -0.580965          0.000000
H              0.799571         -0.580965          0.000000
O             -4.379527         -3.127120          0.000000
H             -5.273927         -2.720237          0.000000
H             -4.474356         -4.105135          0.000000

