6

O              0.000000         -0.009833          0.000000
H             -0.799571         -0.580965          0.000000
H              0.799571         -0.580965          0.000000
O             -4.833936         -3.451703          0.000000
H             -5.728337         -3.044820          0.000000
H             -4.928765         -4.429718          0.000000

