6

O              0.000000         -0.009833          0.000000
H             -0.799571         -0.580965          0.000000
H              0.799571         -0.580965          0.000000
O             -2.400834         -1.709230          0.000000
H             -3.071445         -0.991047          0.000000
H             -2.862715         -2.576509          0.000000

