6

O              0.000000         -0.009833          0.000000
H             -0.799571         -0.580965          0.000000
H              0.799571         -0.580965          0.000000
O             -2.903930         -2.068590          0.000000
H             -3.574541         -1.350407          0.000000
H             -3.365811         -2.935869          0.000000

