6

O              0.000000         -0.009833          0.000000
H             -0.799571         -0.580965          0.000000
H              0.799571         -0.580965          0.000000
O             -2.400583         -1.710492          0.000000
H             -3.159199         -1.085985          0.000000
H             -2.745310         -2.630638          0.000000

