6

O              0.000000         -0.009833          0.000000
H             -0.799571         -0.580965          0.000000
H              0.799571         -0.580965          0.000000
O             -3.488171         -2.485912          0.000000
H             -4.158782         -1.767729          0.000000
H             -3.950051         -3.353191          0.000000

