6

O              0.000000         -0.009833          0.000000
H             -0.799571         -0.580965          0.000000
H              0.799571         -0.580965          0.000000
O             -2.431344         -1.737117          0.000000
H             -3.371202         -1.450458          0.000000
H             -2.397706         -2.719143          0.000000

