6

O              0.000000         -0.009833          0.000000
H             -0.799571         -0.580965          0.000000
H              0.799571         -0.580965          0.000000
O             -4.211883         -3.015592          0.000000
H             -5.152605         -3.299400          0.000000
H             -3.638329         -3.813428          0.000000

