6

O              0.000000         -0.009833          0.000000
H             -0.799571         -0.580965          0.000000
H              0.799571         -0.580965          0.000000
O             -2.846778         -2.042279          0.000000
H             -3.714057         -2.504160          0.000000
H             -2.128595         -2.712890          0.000000

