6

O              0.000000         -0.009833          0.000000
H             -0.799571         -0.580965          0.000000
H              0.799571         -0.580965          0.000000
O             -3.126849         -2.237775          0.000000
H             -4.108972         -2.268435          0.000000
H             -2.779333         -3.156872          0.000000

