6

O              0.000000         -0.009833          0.000000
H             -0.799571         -0.580965          0.000000
H              0.799571         -0.580965          0.000000
O             -3.551513         -2.536461          0.000000
H             -4.470610         -2.188945          0.000000
H             -3.582174         -3.518584          0.000000

