6

O              0.000000         -0.009833          0.000000
H             -0.799571         -0.580965          0.000000
H              0.799571         -0.580965          0.000000
O             -2.611810         -1.859930          0.000000
H             -3.282421         -1.141746          0.000000
H             -3.073691         -2.727208          0.000000

