6

O              0.000000         -0.009833          0.000000
H             -0.799571         -0.580965          0.000000
H              0.799571         -0.580965          0.000000
O             -3.471837         -2.474955          0.000000
H             -4.187983         -1.802169          0.000000
H             -3.876006         -3.370585          0.000000

