6

O              0.000000         -0.009833          0.000000
H             -0.799571         -0.580965          0.000000
H              0.799571         -0.580965          0.000000
O             -4.007058         -2.858742          0.000000
H             -4.804893         -2.285188          0.000000
H             -4.290866         -3.799464          0.000000

