6

O              0.000000         -0.009833          0.000000
H             -0.799571         -0.580965          0.000000
H              0.799571         -0.580965          0.000000
O             -3.633301         -2.593308          0.000000
H             -4.499175         -2.128799          0.000000
H             -3.791892         -3.563027          0.000000

