6

O              0.000000         -0.009833          0.000000
H             -0.799571         -0.580965          0.000000
H              0.799571         -0.580965          0.000000
O             -3.908549         -2.791490          0.000000
H             -4.827646         -2.443975          0.000000
H             -3.939210         -3.773614          0.000000

