6

O              0.000000         -0.009833          0.000000
H             -0.799571         -0.580965          0.000000
H              0.799571         -0.580965          0.000000
O             -4.619361         -3.304603          0.000000
H             -5.597376         -3.399432          0.000000
H             -4.212478         -4.199003          0.000000

