6

O              0.000000         -0.009833          0.000000
H             -0.799571         -0.580965          0.000000
H              0.799571         -0.580965          0.000000
O             -2.968595         -2.116221          0.000000
H             -3.727210         -1.491714          0.000000
H             -3.313322         -3.036367          0.000000

