6

O              0.000000         -0.009833          0.000000
H             -0.799571         -0.580965          0.000000
H              0.799571         -0.580965          0.000000
O             -1.767243         -1.259611          0.000000
H             -2.600883         -0.739466          0.000000
H             -1.988917         -2.216882          0.000000

