6

O              0.000000         -0.009833          0.000000
H             -0.799571         -0.580965          0.000000
H              0.799571         -0.580965          0.000000
O             -3.826621         -2.734550          0.000000
H             -4.783215         -2.509973          0.000000
H             -3.728827         -3.712273          0.000000

