6

O              0.000000         -0.009833          0.000000
H             -0.799571         -0.580965          0.000000
H              0.799571         -0.580965          0.000000
O             -3.384209         -2.424386          0.000000
H             -4.324932         -2.708194          0.000000
H             -2.810655         -3.222222          0.000000

