6

O              0.000000         -0.009833          0.000000
H             -0.799571         -0.580965          0.000000
H              0.799571         -0.580965          0.000000
O             -3.145791         -2.246654          0.000000
H             -4.064888         -1.899139          0.000000
H             -3.176452         -3.228777          0.000000

