6

O              0.000000         -0.009833          0.000000
H             -0.799571         -0.580965          0.000000
H              0.799571         -0.580965          0.000000
O             -3.105157         -2.227840          0.000000
H             -3.904728         -2.798972          0.000000
H             -2.305585         -2.798972          0.000000

