6

O              0.000000         -0.009833          0.000000
H             -0.799571         -0.580965          0.000000
H              0.799571         -0.580965          0.000000
O             -4.786483         -3.413293          0.000000
H             -5.457093         -2.695110          0.000000
H             -5.248363         -4.280572          0.000000

