6

O              0.000000         -0.009833          0.000000
H             -0.799571         -0.580965          0.000000
H              0.799571         -0.580965          0.000000
O             -4.132494         -2.956835          0.000000
H             -5.110509         -3.051664          0.000000
H             -3.725611         -3.851235          0.000000

