6

O              0.000000         -0.009833          0.000000
H             -0.799571         -0.580965          0.000000
H              0.799571         -0.580965          0.000000
O             -3.299904         -2.366947          0.000000
H             -4.099475         -2.938079          0.000000
H             -2.500332         -2.938079          0.000000

