6

O              0.000000         -0.009833          0.000000
H             -0.799571         -0.580965          0.000000
H              0.799571         -0.580965          0.000000
O             -4.218366         -3.008199          0.000000
H             -4.934513         -2.335413          0.000000
H             -4.622535         -3.903829          0.000000

