6

O              0.000000         -0.009833          0.000000
H             -0.799571         -0.580965          0.000000
H              0.799571         -0.580965          0.000000
O             -3.729656         -2.664499          0.000000
H             -4.669514         -2.377839          0.000000
H             -3.696017         -3.646524          0.000000

