6

O              0.000000         -0.009833          0.000000
H             -0.799571         -0.580965          0.000000
H              0.799571         -0.580965          0.000000
O             -4.313896         -3.081820          0.000000
H             -5.253754         -2.795160          0.000000
H             -4.280258         -4.063846          0.000000

