6

O              0.000000         -0.009833          0.000000
H             -0.799571         -0.580965          0.000000
H              0.799571         -0.580965          0.000000
O             -2.530750         -1.800685          0.000000
H             -3.101882         -1.001113          0.000000
H             -3.101882         -2.600256          0.000000

