6

O              0.000000         -0.009833          0.000000
H             -0.799571         -0.580965          0.000000
H              0.799571         -0.580965          0.000000
O             -4.214708         -3.014082          0.000000
H             -5.196734         -2.980443          0.000000
H             -3.928049         -3.953939          0.000000

