6

O              0.000000         -0.009833          0.000000
H             -0.799571         -0.580965          0.000000
H              0.799571         -0.580965          0.000000
O             -2.984970         -2.127187          0.000000
H             -3.701116         -1.454401          0.000000
H             -3.389139         -3.022817          0.000000

