6

O              0.000000         -0.009833          0.000000
H             -0.799571         -0.580965          0.000000
H              0.799571         -0.580965          0.000000
O             -1.939221         -1.392862          0.000000
H             -2.859368         -1.737588          0.000000
H             -1.314714         -2.151477          0.000000

