6

O              0.000000         -0.009833          0.000000
H             -0.799571         -0.580965          0.000000
H              0.799571         -0.580965          0.000000
O             -3.275247         -2.339915          0.000000
H             -4.215105         -2.053256          0.000000
H             -3.241608         -3.321941          0.000000

