6

O              0.000000         -0.009833          0.000000
H             -0.799571         -0.580965          0.000000
H              0.799571         -0.580965          0.000000
O             -4.539783         -3.245519          0.000000
H             -5.517506         -3.147724          0.000000
H             -4.315207         -4.202112          0.000000

