6

O              0.000000         -0.009833          0.000000
H             -0.799571         -0.580965          0.000000
H              0.799571         -0.580965          0.000000
O             -2.738376         -1.958777          0.000000
H             -3.716099         -1.860983          0.000000
H             -2.513799         -2.915371          0.000000

