6

O              0.000000         -0.009833          0.000000
H             -0.799571         -0.580965          0.000000
H              0.799571         -0.580965          0.000000
O             -2.834729         -2.029114          0.000000
H             -3.816852         -2.059775          0.000000
H             -2.487213         -2.948211          0.000000

