6

O              0.000000         -0.009833          0.000000
H             -0.799571         -0.580965          0.000000
H              0.799571         -0.580965          0.000000
O             -2.869525         -2.050109          0.000000
H             -3.809382         -1.763449          0.000000
H             -2.835886         -3.032134          0.000000

