6

O              0.000000         -0.009833          0.000000
H             -0.799571         -0.580965          0.000000
H              0.799571         -0.580965          0.000000
O             -4.162580         -2.981002          0.000000
H             -5.082727         -3.325728          0.000000
H             -3.538073         -3.739617          0.000000

