6

O              0.000000         -0.009833          0.000000
H             -0.799571         -0.580965          0.000000
H              0.799571         -0.580965          0.000000
O             -2.611559         -1.861191          0.000000
H             -3.370175         -1.236684          0.000000
H             -2.956286         -2.781338          0.000000

