6

O              0.000000         -0.009833          0.000000
H             -0.799571         -0.580965          0.000000
H              0.799571         -0.580965          0.000000
O             -2.495412         -1.784453          0.000000
H             -3.464646         -1.622922          0.000000
H             -2.333881         -2.753687          0.000000

