6

O              0.000000         -0.009833          0.000000
H             -0.799571         -0.580965          0.000000
H              0.799571         -0.580965          0.000000
O             -4.438472         -3.178070          0.000000
H             -5.358618         -3.522797          0.000000
H             -3.813965         -3.936686          0.000000

