6

O              0.000000         -0.009833          0.000000
H             -0.799571         -0.580965          0.000000
H              0.799571         -0.580965          0.000000
O             -2.855244         -2.033814          0.000000
H             -3.525854         -1.315630          0.000000
H             -3.317124         -2.901092          0.000000

