6

O              0.000000         -0.009833          0.000000
H             -0.799571         -0.580965          0.000000
H              0.799571         -0.580965          0.000000
O             -2.985159         -2.125268          0.000000
H             -3.556291         -1.325697          0.000000
H             -3.556291         -2.924840          0.000000

