6

O              0.000000         -0.009833          0.000000
H             -0.799571         -0.580965          0.000000
H              0.799571         -0.580965          0.000000
O             -2.125006         -1.511521          0.000000
H             -2.747210         -0.751016          0.000000
H             -2.642621         -2.346735          0.000000

