6

O              0.000000         -0.009833          0.000000
H             -0.799571         -0.580965          0.000000
H              0.799571         -0.580965          0.000000
O             -1.956066         -1.404267          0.000000
H             -2.896789         -1.688075          0.000000
H             -1.382512         -2.202103          0.000000

