6

O              0.000000         -0.009833          0.000000
H             -0.799571         -0.580965          0.000000
H              0.799571         -0.580965          0.000000
O             -3.694860         -2.643504          0.000000
H             -4.676984         -2.674165          0.000000
H             -3.347345         -3.562601          0.000000

