6

O              0.000000         -0.009833          0.000000
H             -0.799571         -0.580965          0.000000
H              0.799571         -0.580965          0.000000
O             -4.818276         -3.438957          0.000000
H             -5.651916         -2.918812          0.000000
H             -5.039950         -4.396228          0.000000

