6

O              0.000000         -0.009833          0.000000
H             -0.799571         -0.580965          0.000000
H              0.799571         -0.580965          0.000000
O             -4.491566         -3.210302          0.000000
H             -5.460800         -3.048771          0.000000
H             -4.330035         -4.179536          0.000000

