6

O              0.000000         -0.009833          0.000000
H             -0.799571         -0.580965          0.000000
H              0.799571         -0.580965          0.000000
O             -3.761706         -2.688180          0.000000
H             -4.718300         -2.463604          0.000000
H             -3.663912         -3.665903          0.000000

