6

O              0.000000         -0.009833          0.000000
H             -0.799571         -0.580965          0.000000
H              0.799571         -0.580965          0.000000
O             -3.486223         -2.490614          0.000000
H             -4.426080         -2.203955          0.000000
H             -3.452584         -3.472640          0.000000

