6

O              0.000000         -0.009833          0.000000
H             -0.799571         -0.580965          0.000000
H              0.799571         -0.580965          0.000000
O             -3.325444         -2.371867          0.000000
H             -4.123280         -1.798313          0.000000
H             -3.609252         -3.312589          0.000000

