6

O              0.000000         -0.009833          0.000000
H             -0.799571         -0.580965          0.000000
H              0.799571         -0.580965          0.000000
O             -1.904218         -1.370012          0.000000
H             -2.703790         -1.941144          0.000000
H             -1.104647         -1.941144          0.000000

