6

O              0.000000         -0.009833          0.000000
H             -0.799571         -0.580965          0.000000
H              0.799571         -0.580965          0.000000
O             -3.033511         -2.162590          0.000000
H             -3.792126         -1.538083          0.000000
H             -3.378237         -3.082736          0.000000

