6

O              0.000000         -0.009833          0.000000
H             -0.799571         -0.580965          0.000000
H              0.799571         -0.580965          0.000000
O             -2.366429         -1.690748          0.000000
H             -3.306286         -1.404089          0.000000
H             -2.332790         -2.672774          0.000000

