6

O              0.000000         -0.009833          0.000000
H             -0.799571         -0.580965          0.000000
H              0.799571         -0.580965          0.000000
O             -4.663774         -3.340676          0.000000
H             -5.498987         -3.858291          0.000000
H             -3.903268         -3.962879          0.000000

