6

O              0.000000         -0.009833          0.000000
H             -0.799571         -0.580965          0.000000
H              0.799571         -0.580965          0.000000
O             -2.286302         -1.631150          0.000000
H             -3.152176         -1.166641          0.000000
H             -2.444893         -2.600869          0.000000

