6

O              0.000000         -0.009833          0.000000
H             -0.799571         -0.580965          0.000000
H              0.799571         -0.580965          0.000000
O             -3.710543         -2.655436          0.000000
H             -4.688558         -2.750265          0.000000
H             -3.303659         -3.549836          0.000000

