6

O              0.000000         -0.009833          0.000000
H             -0.799571         -0.580965          0.000000
H              0.799571         -0.580965          0.000000
O             -4.794246         -3.433351          0.000000
H             -5.661525         -3.895232          0.000000
H             -4.076063         -4.103962          0.000000

