6

O              0.000000         -0.009833          0.000000
H             -0.799571         -0.580965          0.000000
H              0.799571         -0.580965          0.000000
O             -1.977953         -1.410897          0.000000
H             -2.843827         -0.946388          0.000000
H             -2.136544         -2.380616          0.000000

