6

O              0.000000         -0.009833          0.000000
H             -0.799571         -0.580965          0.000000
H              0.799571         -0.580965          0.000000
O             -2.948854         -2.109885          0.000000
H             -3.930880         -2.076246          0.000000
H             -2.662194         -3.049743          0.000000

