6

O              0.000000         -0.009833          0.000000
H             -0.799571         -0.580965          0.000000
H              0.799571         -0.580965          0.000000
O             -2.189194         -1.561010          0.000000
H             -3.022834         -1.040865          0.000000
H             -2.410869         -2.518281          0.000000

