6

O              0.000000         -0.009833          0.000000
H             -0.799571         -0.580965          0.000000
H              0.799571         -0.580965          0.000000
O             -2.100884         -1.508930          0.000000
H             -2.996514         -1.913099          0.000000
H             -1.428098         -2.225077          0.000000

