6

O              0.000000         -0.009833          0.000000
H             -0.799571         -0.580965          0.000000
H              0.799571         -0.580965          0.000000
O             -4.054949         -2.895274          0.000000
H             -4.949349         -2.488391          0.000000
H             -4.149778         -3.873289          0.000000

