6

O              0.000000         -0.009833          0.000000
H             -0.799571         -0.580965          0.000000
H              0.799571         -0.580965          0.000000
O             -4.543133         -3.238126          0.000000
H             -5.114265         -2.438554          0.000000
H             -5.114265         -4.037697          0.000000

