6

O              0.000000         -0.009833          0.000000
H             -0.799571         -0.580965          0.000000
H              0.799571         -0.580965          0.000000
O             -3.089571         -2.216226          0.000000
H             -3.924784         -2.733841          0.000000
H             -2.329065         -2.838430          0.000000

