6

O              0.000000         -0.009833          0.000000
H             -0.799571         -0.580965          0.000000
H              0.799571         -0.580965          0.000000
O             -3.056470         -2.193063          0.000000
H             -3.856042         -2.764195          0.000000
H             -2.256899         -2.764195          0.000000

