6

O              0.000000         -0.009833          0.000000
H             -0.799571         -0.580965          0.000000
H              0.799571         -0.580965          0.000000
O             -4.422859         -3.166291          0.000000
H             -5.363581         -3.450100          0.000000
H             -3.849305         -3.964127          0.000000

