6

O              0.000000         -0.009833          0.000000
H             -0.799571         -0.580965          0.000000
H              0.799571         -0.580965          0.000000
O             -2.465834         -1.754316          0.000000
H             -3.036966         -0.954744          0.000000
H             -3.036966         -2.553887          0.000000

