6

O              0.000000         -0.009833          0.000000
H             -0.799571         -0.580965          0.000000
H              0.799571         -0.580965          0.000000
O             -3.958371         -2.823965          0.000000
H             -4.756207         -2.250411          0.000000
H             -4.242179         -3.764688          0.000000

