6

O              0.000000         -0.009833          0.000000
H             -0.799571         -0.580965          0.000000
H              0.799571         -0.580965          0.000000
O             -4.015259         -2.876922          0.000000
H             -4.882537         -3.338803          0.000000
H             -3.297075         -3.547533          0.000000

