6

O              0.000000         -0.009833          0.000000
H             -0.799571         -0.580965          0.000000
H              0.799571         -0.580965          0.000000
O             -2.590181         -1.855873          0.000000
H             -3.559900         -2.014464          0.000000
H             -2.125673         -2.721747          0.000000

