6

O              0.000000         -0.009833          0.000000
H             -0.799571         -0.580965          0.000000
H              0.799571         -0.580965          0.000000
O             -2.684489         -1.926357          0.000000
H             -3.551768         -2.388237          0.000000
H             -1.966306         -2.596967          0.000000

