6

O              0.000000         -0.009833          0.000000
H             -0.799571         -0.580965          0.000000
H              0.799571         -0.580965          0.000000
O             -4.355425         -3.120423          0.000000
H             -5.190638         -3.638038          0.000000
H             -3.594919         -3.742626          0.000000

