6

O              0.000000         -0.009833          0.000000
H             -0.799571         -0.580965          0.000000
H              0.799571         -0.580965          0.000000
O             -2.234259         -1.600200          0.000000
H             -3.216383         -1.630861          0.000000
H             -1.886744         -2.519297          0.000000

