6

O              0.000000         -0.009833          0.000000
H             -0.799571         -0.580965          0.000000
H              0.799571         -0.580965          0.000000
O             -1.892339         -1.357406          0.000000
H             -2.862058         -1.515997          0.000000
H             -1.427830         -2.223280          0.000000

