6

O              0.000000         -0.009833          0.000000
H             -0.799571         -0.580965          0.000000
H              0.799571         -0.580965          0.000000
O             -4.164384         -2.980323          0.000000
H             -5.134103         -3.138914          0.000000
H             -3.699876         -3.846197          0.000000

