6

O              0.000000         -0.009833          0.000000
H             -0.799571         -0.580965          0.000000
H              0.799571         -0.580965          0.000000
O             -2.998038         -2.144253          0.000000
H             -3.975761         -2.046459          0.000000
H             -2.773462         -3.100847          0.000000

