6

O              0.000000         -0.009833          0.000000
H             -0.799571         -0.580965          0.000000
H              0.799571         -0.580965          0.000000
O             -3.519395         -2.512730          0.000000
H             -4.413796         -2.105847          0.000000
H             -3.614224         -3.490745          0.000000

