6

O              0.000000         -0.009833          0.000000
H             -0.799571         -0.580965          0.000000
H              0.799571         -0.580965          0.000000
O             -1.810006         -1.299937          0.000000
H             -2.750728         -1.583745          0.000000
H             -1.236452         -2.097772          0.000000

