6

O              0.000000         -0.009833          0.000000
H             -0.799571         -0.580965          0.000000
H              0.799571         -0.580965          0.000000
O             -3.804283         -2.726223          0.000000
H             -4.671562         -3.188104          0.000000
H             -3.086100         -3.396834          0.000000

