6

O              0.000000         -0.009833          0.000000
H             -0.799571         -0.580965          0.000000
H              0.799571         -0.580965          0.000000
O             -3.910206         -2.786027          0.000000
H             -4.481338         -1.986456          0.000000
H             -4.481338         -3.585599          0.000000

