6

O              0.000000         -0.009833          0.000000
H             -0.799571         -0.580965          0.000000
H              0.799571         -0.580965          0.000000
O             -2.394848         -1.717031          0.000000
H             -3.352119         -1.938706          0.000000
H             -1.874703         -2.550671          0.000000

