6

O              0.000000         -0.009833          0.000000
H             -0.799571         -0.580965          0.000000
H              0.799571         -0.580965          0.000000
O             -3.617897         -2.579285          0.000000
H             -4.334044         -1.906499          0.000000
H             -4.022066         -3.474915          0.000000

