6

O              0.000000         -0.009833          0.000000
H             -0.799571         -0.580965          0.000000
H              0.799571         -0.580965          0.000000
O             -4.324869         -3.096924          0.000000
H             -5.245016         -3.441651          0.000000
H             -3.700362         -3.855540          0.000000

