6

O              0.000000         -0.009833          0.000000
H             -0.799571         -0.580965          0.000000
H              0.799571         -0.580965          0.000000
O             -2.449605         -1.742723          0.000000
H             -3.020737         -0.943152          0.000000
H             -3.020737         -2.542295          0.000000

