6

O              0.000000         -0.009833          0.000000
H             -0.799571         -0.580965          0.000000
H              0.799571         -0.580965          0.000000
O             -3.845290         -2.739658          0.000000
H             -4.416422         -1.940087          0.000000
H             -4.416422         -3.539230          0.000000

