6

O              0.000000         -0.009833          0.000000
H             -0.799571         -0.580965          0.000000
H              0.799571         -0.580965          0.000000
O             -2.384168         -1.699515          0.000000
H             -3.182004         -1.125961          0.000000
H             -2.667976         -2.640238          0.000000

