6

O              0.000000         -0.009833          0.000000
H             -0.799571         -0.580965          0.000000
H              0.799571         -0.580965          0.000000
O             -4.234763         -3.018516          0.000000
H             -4.856967         -2.258010          0.000000
H             -4.752378         -3.853729          0.000000

