6

O              0.000000         -0.009833          0.000000
H             -0.799571         -0.580965          0.000000
H              0.799571         -0.580965          0.000000
O             -4.765421         -3.408933          0.000000
H             -5.743436         -3.503762          0.000000
H             -4.358538         -4.303334          0.000000

