6

O              0.000000         -0.009833          0.000000
H             -0.799571         -0.580965          0.000000
H              0.799571         -0.580965          0.000000
O             -3.840920         -2.747834          0.000000
H             -4.823044         -2.778495          0.000000
H             -3.493405         -3.666931          0.000000

