6

O              0.000000         -0.009833          0.000000
H             -0.799571         -0.580965          0.000000
H              0.799571         -0.580965          0.000000
O             -4.835232         -3.447430          0.000000
H             -5.457436         -2.686924          0.000000
H             -5.352847         -4.282643          0.000000

