6

O              0.000000         -0.009833          0.000000
H             -0.799571         -0.580965          0.000000
H              0.799571         -0.580965          0.000000
O             -3.260861         -2.324255          0.000000
H             -3.977008         -1.651470          0.000000
H             -3.665030         -3.219885          0.000000

