6

O              0.000000         -0.009833          0.000000
H             -0.799571         -0.580965          0.000000
H              0.799571         -0.580965          0.000000
O             -3.715375         -2.648204          0.000000
H             -4.385986         -1.930020          0.000000
H             -4.177256         -3.515482          0.000000

