6

O              0.000000         -0.009833          0.000000
H             -0.799571         -0.580965          0.000000
H              0.799571         -0.580965          0.000000
O             -3.549821         -2.538391          0.000000
H             -4.527544         -2.440596          0.000000
H             -3.325244         -3.494984          0.000000

