6

O              0.000000         -0.009833          0.000000
H             -0.799571         -0.580965          0.000000
H              0.799571         -0.580965          0.000000
O             -2.119543         -1.519697          0.000000
H             -3.089262         -1.678289          0.000000
H             -1.655035         -2.385571          0.000000

