6

O              0.000000         -0.009833          0.000000
H             -0.799571         -0.580965          0.000000
H              0.799571         -0.580965          0.000000
O             -4.656736         -3.319272          0.000000
H             -5.227868         -2.519700          0.000000
H             -5.227868         -4.118843          0.000000

