6

O              0.000000         -0.009833          0.000000
H             -0.799571         -0.580965          0.000000
H              0.799571         -0.580965          0.000000
O             -1.767970         -1.256491          0.000000
H             -2.390174         -0.495986          0.000000
H             -2.285585         -2.091705          0.000000

