6

O              0.000000         -0.009833          0.000000
H             -0.799571         -0.580965          0.000000
H              0.799571         -0.580965          0.000000
O             -2.506606         -1.798737          0.000000
H             -3.402236         -2.202906          0.000000
H             -1.833821         -2.514883          0.000000

