6

O              0.000000         -0.009833          0.000000
H             -0.799571         -0.580965          0.000000
H              0.799571         -0.580965          0.000000
O             -4.119525         -2.942190          0.000000
H             -5.038622         -2.594674          0.000000
H             -4.150185         -3.924313          0.000000

