6

O              0.000000         -0.009833          0.000000
H             -0.799571         -0.580965          0.000000
H              0.799571         -0.580965          0.000000
O             -3.776528         -2.701090          0.000000
H             -4.758554         -2.667452          0.000000
H             -3.489868         -3.640948          0.000000

