6

O              0.000000         -0.009833          0.000000
H             -0.799571         -0.580965          0.000000
H              0.799571         -0.580965          0.000000
O             -4.555515         -3.257519          0.000000
H             -5.537541         -3.223880          0.000000
H             -4.268855         -4.197377          0.000000

