6

O              0.000000         -0.009833          0.000000
H             -0.799571         -0.580965          0.000000
H              0.799571         -0.580965          0.000000
O             -3.077616         -2.203338          0.000000
H             -4.055631         -2.298167          0.000000
H             -2.670732         -3.097738          0.000000

