6

O              0.000000         -0.009833          0.000000
H             -0.799571         -0.580965          0.000000
H              0.799571         -0.580965          0.000000
O             -4.669614         -3.338257          0.000000
H             -5.647337         -3.240462          0.000000
H             -4.445038         -4.294851          0.000000

