6

O              0.000000         -0.009833          0.000000
H             -0.799571         -0.580965          0.000000
H              0.799571         -0.580965          0.000000
O             -2.124013         -1.515227          0.000000
H             -2.989887         -1.050719          0.000000
H             -2.282605         -2.484946          0.000000

