6

O              0.000000         -0.009833          0.000000
H             -0.799571         -0.580965          0.000000
H              0.799571         -0.580965          0.000000
O             -2.184459         -1.566066          0.000000
H             -3.154178         -1.724658          0.000000
H             -1.719950         -2.431941          0.000000

