6

O              0.000000         -0.009833          0.000000
H             -0.799571         -0.580965          0.000000
H              0.799571         -0.580965          0.000000
O             -2.757870         -1.964260          0.000000
H             -3.428481         -1.246077          0.000000
H             -3.219751         -2.831539          0.000000

