6

O              0.000000         -0.009833          0.000000
H             -0.799571         -0.580965          0.000000
H              0.799571         -0.580965          0.000000
O             -2.799968         -2.007065          0.000000
H             -3.740691         -2.290873          0.000000
H             -2.226415         -2.804901          0.000000

