6

O              0.000000         -0.009833          0.000000
H             -0.799571         -0.580965          0.000000
H              0.799571         -0.580965          0.000000
O             -3.728808         -2.665466          0.000000
H             -4.698042         -2.503934          0.000000
H             -3.567277         -3.634699          0.000000

