6

O              0.000000         -0.009833          0.000000
H             -0.799571         -0.580965          0.000000
H              0.799571         -0.580965          0.000000
O             -4.782720         -3.419811          0.000000
H             -5.764745         -3.386172          0.000000
H             -4.496060         -4.359669          0.000000

