6

O              0.000000         -0.009833          0.000000
H             -0.799571         -0.580965          0.000000
H              0.799571         -0.580965          0.000000
O             -3.009067         -2.158202          0.000000
H             -3.876346         -2.620083          0.000000
H             -2.290884         -2.828813          0.000000

