6

O              0.000000         -0.009833          0.000000
H             -0.799571         -0.580965          0.000000
H              0.799571         -0.580965          0.000000
O             -3.157607         -2.261868          0.000000
H             -4.114877         -2.483542          0.000000
H             -2.637462         -3.095508          0.000000

