6

O              0.000000         -0.009833          0.000000
H             -0.799571         -0.580965          0.000000
H              0.799571         -0.580965          0.000000
O             -3.600540         -2.570691          0.000000
H             -4.494940         -2.163808          0.000000
H             -3.695369         -3.548706          0.000000

