6

O              0.000000         -0.009833          0.000000
H             -0.799571         -0.580965          0.000000
H              0.799571         -0.580965          0.000000
O             -3.367364         -2.412981          0.000000
H             -4.287511         -2.757708          0.000000
H             -2.742857         -3.171596          0.000000

