6

O              0.000000         -0.009833          0.000000
H             -0.799571         -0.580965          0.000000
H              0.799571         -0.580965          0.000000
O             -2.902357         -2.072770          0.000000
H             -3.821454         -1.725255          0.000000
H             -2.933018         -3.054893          0.000000

