6

O              0.000000         -0.009833          0.000000
H             -0.799571         -0.580965          0.000000
H              0.799571         -0.580965          0.000000
O             -3.437536         -2.455838          0.000000
H             -4.377394         -2.169178          0.000000
H             -3.403897         -3.437863          0.000000

