6

O              0.000000         -0.009833          0.000000
H             -0.799571         -0.580965          0.000000
H              0.799571         -0.580965          0.000000
O             -2.935724         -2.094254          0.000000
H             -3.769364         -1.574110          0.000000
H             -3.157398         -3.051525          0.000000

