6

O              0.000000         -0.009833          0.000000
H             -0.799571         -0.580965          0.000000
H              0.799571         -0.580965          0.000000
O             -1.830467         -1.308701          0.000000
H             -2.787061         -1.084125          0.000000
H             -1.732673         -2.286424          0.000000

