6

O              0.000000         -0.009833          0.000000
H             -0.799571         -0.580965          0.000000
H              0.799571         -0.580965          0.000000
O             -4.396738         -3.136340          0.000000
H             -5.155353         -2.511833          0.000000
H             -4.741465         -4.056487          0.000000

