6

O              0.000000         -0.009833          0.000000
H             -0.799571         -0.580965          0.000000
H              0.799571         -0.580965          0.000000
O             -4.802274         -3.426763          0.000000
H             -5.600110         -2.853209          0.000000
H             -5.086082         -4.367485          0.000000

