6

O              0.000000         -0.009833          0.000000
H             -0.799571         -0.580965          0.000000
H              0.799571         -0.580965          0.000000
O             -2.393004         -1.717591          0.000000
H             -3.288634         -2.121760          0.000000
H             -1.720218         -2.433737          0.000000

