6

O              0.000000         -0.009833          0.000000
H             -0.799571         -0.580965          0.000000
H              0.799571         -0.580965          0.000000
O             -4.684276         -3.350972          0.000000
H             -5.662292         -3.445801          0.000000
H             -4.277393         -4.245372          0.000000

