6

O              0.000000         -0.009833          0.000000
H             -0.799571         -0.580965          0.000000
H              0.799571         -0.580965          0.000000
O             -2.509604         -1.797608          0.000000
H             -3.487619         -1.892437          0.000000
H             -2.102721         -2.692009          0.000000

