6

O              0.000000         -0.009833          0.000000
H             -0.799571         -0.580965          0.000000
H              0.799571         -0.580965          0.000000
O             -2.656211         -1.901599          0.000000
H             -3.638334         -1.932260          0.000000
H             -2.308695         -2.820696          0.000000

