6

O              0.000000         -0.009833          0.000000
H             -0.799571         -0.580965          0.000000
H              0.799571         -0.580965          0.000000
O             -4.705087         -3.356593          0.000000
H             -5.463702         -2.732086          0.000000
H             -5.049814         -4.276740          0.000000

