6

O              0.000000         -0.009833          0.000000
H             -0.799571         -0.580965          0.000000
H              0.799571         -0.580965          0.000000
O             -2.348882         -1.680563          0.000000
H             -3.326605         -1.582769          0.000000
H             -2.124306         -2.637157          0.000000

