6

O              0.000000         -0.009833          0.000000
H             -0.799571         -0.580965          0.000000
H              0.799571         -0.580965          0.000000
O             -3.130205         -2.233948          0.000000
H             -3.996079         -1.769439          0.000000
H             -3.288796         -3.203667          0.000000

