6

O              0.000000         -0.009833          0.000000
H             -0.799571         -0.580965          0.000000
H              0.799571         -0.580965          0.000000
O             -2.525833         -1.809201          0.000000
H             -3.503848         -1.904030          0.000000
H             -2.118950         -2.703601          0.000000

