6

O              0.000000         -0.009833          0.000000
H             -0.799571         -0.580965          0.000000
H              0.799571         -0.580965          0.000000
O             -3.536419         -2.522566          0.000000
H             -4.334255         -1.949012          0.000000
H             -3.820228         -3.463289          0.000000

