6

O              0.000000         -0.009833          0.000000
H             -0.799571         -0.580965          0.000000
H              0.799571         -0.580965          0.000000
O             -1.856815         -1.335151          0.000000
H             -2.724094         -1.797032          0.000000
H             -1.138632         -2.005762          0.000000

