6

O              0.000000         -0.009833          0.000000
H             -0.799571         -0.580965          0.000000
H              0.799571         -0.580965          0.000000
O             -3.989693         -2.849452          0.000000
H             -4.908790         -2.501936          0.000000
H             -4.020354         -3.831575          0.000000

