6

O              0.000000         -0.009833          0.000000
H             -0.799571         -0.580965          0.000000
H              0.799571         -0.580965          0.000000
O             -2.461464         -1.762492          0.000000
H             -3.443587         -1.793153          0.000000
H             -2.113949         -2.681589          0.000000

