6

O              0.000000         -0.009833          0.000000
H             -0.799571         -0.580965          0.000000
H              0.799571         -0.580965          0.000000
O             -4.280591         -3.059603          0.000000
H             -5.249825         -2.898072          0.000000
H             -4.119060         -4.028836          0.000000

