6

O              0.000000         -0.009833          0.000000
H             -0.799571         -0.580965          0.000000
H              0.799571         -0.580965          0.000000
O             -1.735513         -1.233307          0.000000
H             -2.357716         -0.472801          0.000000
H             -2.253127         -2.068520          0.000000

