6

O              0.000000         -0.009833          0.000000
H             -0.799571         -0.580965          0.000000
H              0.799571         -0.580965          0.000000
O             -3.877748         -2.762843          0.000000
H             -4.448880         -1.963271          0.000000
H             -4.448880         -3.562414          0.000000

