6

O              0.000000         -0.009833          0.000000
H             -0.799571         -0.580965          0.000000
H              0.799571         -0.580965          0.000000
O             -2.010903         -1.432893          0.000000
H             -2.808739         -0.859339          0.000000
H             -2.294711         -2.373616          0.000000

