6

O              0.000000         -0.009833          0.000000
H             -0.799571         -0.580965          0.000000
H              0.799571         -0.580965          0.000000
O             -2.929800         -2.099803          0.000000
H             -3.870522         -2.383611          0.000000
H             -2.356246         -2.897639          0.000000

