6

O              0.000000         -0.009833          0.000000
H             -0.799571         -0.580965          0.000000
H              0.799571         -0.580965          0.000000
O             -3.633980         -2.591504          0.000000
H             -4.392595         -1.966997          0.000000
H             -3.978706         -3.511650          0.000000

