6

O              0.000000         -0.009833          0.000000
H             -0.799571         -0.580965          0.000000
H              0.799571         -0.580965          0.000000
O             -2.521560         -1.810497          0.000000
H             -3.356773         -2.328112          0.000000
H             -1.761054         -2.432701          0.000000

