6

O              0.000000         -0.009833          0.000000
H             -0.799571         -0.580965          0.000000
H              0.799571         -0.580965          0.000000
O             -3.433498         -2.458936          0.000000
H             -4.390768         -2.680611          0.000000
H             -2.913353         -3.292576          0.000000

