6

O              0.000000         -0.009833          0.000000
H             -0.799571         -0.580965          0.000000
H              0.799571         -0.580965          0.000000
O             -3.300547         -2.366926          0.000000
H             -4.135760         -2.884540          0.000000
H             -2.540041         -2.989129          0.000000

