6

O              0.000000         -0.009833          0.000000
H             -0.799571         -0.580965          0.000000
H              0.799571         -0.580965          0.000000
O             -2.967916         -2.118025          0.000000
H             -3.833790         -1.653516          0.000000
H             -3.126507         -3.087744          0.000000

