6

O              0.000000         -0.009833          0.000000
H             -0.799571         -0.580965          0.000000
H              0.799571         -0.580965          0.000000
O             -3.923555         -2.804573          0.000000
H             -4.892789         -2.643042          0.000000
H             -3.762024         -3.773806          0.000000

