6

O              0.000000         -0.009833          0.000000
H             -0.799571         -0.580965          0.000000
H              0.799571         -0.580965          0.000000
O             -2.822681         -2.011264          0.000000
H             -3.538827         -1.338478          0.000000
H             -3.226850         -2.906894          0.000000

