6

O              0.000000         -0.009833          0.000000
H             -0.799571         -0.580965          0.000000
H              0.799571         -0.580965          0.000000
O             -3.851686         -2.761084          0.000000
H             -4.651258         -3.332216          0.000000
H             -3.052115         -3.332216          0.000000

