6

O              0.000000         -0.009833          0.000000
H             -0.799571         -0.580965          0.000000
H              0.799571         -0.580965          0.000000
O             -2.911694         -2.088648          0.000000
H             -3.778972         -2.550529          0.000000
H             -2.193510         -2.759259          0.000000

