6

O              0.000000         -0.009833          0.000000
H             -0.799571         -0.580965          0.000000
H              0.799571         -0.580965          0.000000
O             -4.312579         -3.083227          0.000000
H             -5.290302         -2.985433          0.000000
H             -4.088002         -4.039821          0.000000

