6

O              0.000000         -0.009833          0.000000
H             -0.799571         -0.580965          0.000000
H              0.799571         -0.580965          0.000000
O             -3.496569         -2.505865          0.000000
H             -4.392199         -2.910034          0.000000
H             -2.823783         -3.222011          0.000000

