6

O              0.000000         -0.009833          0.000000
H             -0.799571         -0.580965          0.000000
H              0.799571         -0.580965          0.000000
O             -4.559027         -3.252263          0.000000
H             -5.317642         -2.627756          0.000000
H             -4.903754         -4.172410          0.000000

