6

O              0.000000         -0.009833          0.000000
H             -0.799571         -0.580965          0.000000
H              0.799571         -0.580965          0.000000
O             -2.172396         -1.550572          0.000000
H             -3.066797         -1.143688          0.000000
H             -2.267226         -2.528587          0.000000

