6

O              0.000000         -0.009833          0.000000
H             -0.799571         -0.580965          0.000000
H              0.799571         -0.580965          0.000000
O             -2.579247         -1.837380          0.000000
H             -3.295394         -1.164595          0.000000
H             -2.983417         -2.733010          0.000000

