6

O              0.000000         -0.009833          0.000000
H             -0.799571         -0.580965          0.000000
H              0.799571         -0.580965          0.000000
O             -2.221083         -1.585348          0.000000
H             -3.115484         -1.178465          0.000000
H             -2.315912         -2.563363          0.000000

