6

O              0.000000         -0.009833          0.000000
H             -0.799571         -0.580965          0.000000
H              0.799571         -0.580965          0.000000
O             -3.078685         -2.202623          0.000000
H             -4.060711         -2.168984          0.000000
H             -2.792026         -3.142481          0.000000

