6

O              0.000000         -0.009833          0.000000
H             -0.799571         -0.580965          0.000000
H              0.799571         -0.580965          0.000000
O             -3.991329         -2.844632          0.000000
H             -4.613533         -2.084126          0.000000
H             -4.508944         -3.679845          0.000000

