6

O              0.000000         -0.009833          0.000000
H             -0.799571         -0.580965          0.000000
H              0.799571         -0.580965          0.000000
O             -4.267053         -3.042976          0.000000
H             -4.983200         -2.370190          0.000000
H             -4.671222         -3.938606          0.000000

