6

O              0.000000         -0.009833          0.000000
H             -0.799571         -0.580965          0.000000
H              0.799571         -0.580965          0.000000
O             -4.148156         -2.968731          0.000000
H             -5.117875         -3.127322          0.000000
H             -3.683647         -3.834605          0.000000

