6

O              0.000000         -0.009833          0.000000
H             -0.799571         -0.580965          0.000000
H              0.799571         -0.580965          0.000000
O             -3.666752         -2.612786          0.000000
H             -4.288955         -1.852281          0.000000
H             -4.184366         -3.448000          0.000000

