6

O              0.000000         -0.009833          0.000000
H             -0.799571         -0.580965          0.000000
H              0.799571         -0.580965          0.000000
O             -2.237881         -1.595787          0.000000
H             -3.071521         -1.075642          0.000000
H             -2.459556         -2.553058          0.000000

