6

O              0.000000         -0.009833          0.000000
H             -0.799571         -0.580965          0.000000
H              0.799571         -0.580965          0.000000
O             -3.614736         -2.584759          0.000000
H             -4.592459         -2.486965          0.000000
H             -3.390160         -3.541353          0.000000

