6

O              0.000000         -0.009833          0.000000
H             -0.799571         -0.580965          0.000000
H              0.799571         -0.580965          0.000000
O             -3.673812         -2.633548          0.000000
H             -4.509025         -3.151162          0.000000
H             -2.913306         -3.255751          0.000000

