6

O              0.000000         -0.009833          0.000000
H             -0.799571         -0.580965          0.000000
H              0.799571         -0.580965          0.000000
O             -2.249374         -1.612435          0.000000
H             -3.219093         -1.771027          0.000000
H             -1.784866         -2.478310          0.000000

