6

O              0.000000         -0.009833          0.000000
H             -0.799571         -0.580965          0.000000
H              0.799571         -0.580965          0.000000
O             -4.264802         -3.047541          0.000000
H             -5.221396         -2.822964          0.000000
H             -4.167008         -4.025264          0.000000

