6

O              0.000000         -0.009833          0.000000
H             -0.799571         -0.580965          0.000000
H              0.799571         -0.580965          0.000000
O             -2.687555         -1.925427          0.000000
H             -3.657274         -2.084018          0.000000
H             -2.223046         -2.791301          0.000000

