6

O              0.000000         -0.009833          0.000000
H             -0.799571         -0.580965          0.000000
H              0.799571         -0.580965          0.000000
O             -4.130123         -2.957817          0.000000
H             -5.050269         -3.302544          0.000000
H             -3.505616         -3.716433          0.000000

