6

O              0.000000         -0.009833          0.000000
H             -0.799571         -0.580965          0.000000
H              0.799571         -0.580965          0.000000
O             -2.311224         -1.659734          0.000000
H             -3.178503         -2.121615          0.000000
H             -1.593041         -2.330345          0.000000

