6

O              0.000000         -0.009833          0.000000
H             -0.799571         -0.580965          0.000000
H              0.799571         -0.580965          0.000000
O             -2.992198         -2.146673          0.000000
H             -3.827411         -2.664287          0.000000
H             -2.231692         -2.768876          0.000000

