6

O              0.000000         -0.009833          0.000000
H             -0.799571         -0.580965          0.000000
H              0.799571         -0.580965          0.000000
O             -1.871761         -1.346827          0.000000
H             -2.671332         -1.917959          0.000000
H             -1.072189         -1.917959          0.000000

