6

O              0.000000         -0.009833          0.000000
H             -0.799571         -0.580965          0.000000
H              0.799571         -0.580965          0.000000
O             -2.375500         -1.706167          0.000000
H             -3.210713         -2.223781          0.000000
H             -1.614994         -2.328370          0.000000

