6

O              0.000000         -0.009833          0.000000
H             -0.799571         -0.580965          0.000000
H              0.799571         -0.580965          0.000000
O             -3.893956         -2.775078          0.000000
H             -4.516160         -2.014572          0.000000
H             -4.411571         -3.610291          0.000000

