6

O              0.000000         -0.009833          0.000000
H             -0.799571         -0.580965          0.000000
H              0.799571         -0.580965          0.000000
O             -2.284436         -1.633754          0.000000
H             -3.253670         -1.472223          0.000000
H             -2.122905         -2.602988          0.000000

