6

O              0.000000         -0.009833          0.000000
H             -0.799571         -0.580965          0.000000
H              0.799571         -0.580965          0.000000
O             -3.222522         -2.308237          0.000000
H             -4.179793         -2.529911          0.000000
H             -2.702377         -3.141877          0.000000

