6

O              0.000000         -0.009833          0.000000
H             -0.799571         -0.580965          0.000000
H              0.799571         -0.580965          0.000000
O             -2.514437         -1.790376          0.000000
H             -3.185048         -1.072193          0.000000
H             -2.976318         -2.657655          0.000000

