6

O              0.000000         -0.009833          0.000000
H             -0.799571         -0.580965          0.000000
H              0.799571         -0.580965          0.000000
O             -3.268729         -2.343678          0.000000
H             -4.136008         -2.805559          0.000000
H             -2.550546         -3.014289          0.000000

