6

O              0.000000         -0.009833          0.000000
H             -0.799571         -0.580965          0.000000
H              0.799571         -0.580965          0.000000
O             -3.826181         -2.735019          0.000000
H             -4.795415         -2.573488          0.000000
H             -3.664650         -3.704253          0.000000

