6

O              0.000000         -0.009833          0.000000
H             -0.799571         -0.580965          0.000000
H              0.799571         -0.580965          0.000000
O             -3.618065         -2.578010          0.000000
H             -4.240269         -1.817504          0.000000
H             -4.135680         -3.413223          0.000000

