6

O              0.000000         -0.009833          0.000000
H             -0.799571         -0.580965          0.000000
H              0.799571         -0.580965          0.000000
O             -4.704673         -3.357811          0.000000
H             -5.538313         -2.837666          0.000000
H             -4.926348         -4.315082          0.000000

