6

O              0.000000         -0.009833          0.000000
H             -0.799571         -0.580965          0.000000
H              0.799571         -0.580965          0.000000
O             -2.946631         -2.111168          0.000000
H             -3.903901         -2.332843          0.000000
H             -2.426486         -2.944808          0.000000

