6

O              0.000000         -0.009833          0.000000
H             -0.799571         -0.580965          0.000000
H              0.799571         -0.580965          0.000000
O             -4.477696         -3.194917          0.000000
H             -5.275532         -2.621363          0.000000
H             -4.761504         -4.135640          0.000000

