6

O              0.000000         -0.009833          0.000000
H             -0.799571         -0.580965          0.000000
H              0.799571         -0.580965          0.000000
O             -3.601668         -2.567693          0.000000
H             -4.317815         -1.894907          0.000000
H             -4.005837         -3.463323          0.000000

