6

O              0.000000         -0.009833          0.000000
H             -0.799571         -0.580965          0.000000
H              0.799571         -0.580965          0.000000
O             -2.948331         -2.110260          0.000000
H             -3.930454         -2.140921          0.000000
H             -2.600816         -3.029357          0.000000

