6

O              0.000000         -0.009833          0.000000
H             -0.799571         -0.580965          0.000000
H              0.799571         -0.580965          0.000000
O             -2.318457         -1.654902          0.000000
H             -3.212857         -1.248019          0.000000
H             -2.413286         -2.632917          0.000000

