6

O              0.000000         -0.009833          0.000000
H             -0.799571         -0.580965          0.000000
H              0.799571         -0.580965          0.000000
O             -2.980789         -2.133444          0.000000
H             -3.962912         -2.164105          0.000000
H             -2.633273         -3.052541          0.000000

