6

O              0.000000         -0.009833          0.000000
H             -0.799571         -0.580965          0.000000
H              0.799571         -0.580965          0.000000
O             -2.457919         -1.763960          0.000000
H             -3.353549         -2.168129          0.000000
H             -1.785134         -2.480107          0.000000

