6

O              0.000000         -0.009833          0.000000
H             -0.799571         -0.580965          0.000000
H              0.799571         -0.580965          0.000000
O             -4.390401         -3.143107          0.000000
H             -5.331123         -3.426915          0.000000
H             -3.816847         -3.940942          0.000000

