6

O              0.000000         -0.009833          0.000000
H             -0.799571         -0.580965          0.000000
H              0.799571         -0.580965          0.000000
O             -4.797312         -3.432421          0.000000
H             -5.767031         -3.591012          0.000000
H             -4.332803         -4.298295          0.000000

