6

O              0.000000         -0.009833          0.000000
H             -0.799571         -0.580965          0.000000
H              0.799571         -0.580965          0.000000
O             -4.656715         -3.319915          0.000000
H             -5.278918         -2.559409          0.000000
H             -5.174329         -4.155128          0.000000

