6

O              0.000000         -0.009833          0.000000
H             -0.799571         -0.580965          0.000000
H              0.799571         -0.580965          0.000000
O             -4.004230         -2.862974          0.000000
H             -4.981953         -2.765180          0.000000
H             -3.779654         -3.819568          0.000000

