6

O              0.000000         -0.009833          0.000000
H             -0.799571         -0.580965          0.000000
H              0.799571         -0.580965          0.000000
O             -2.546457         -1.815438          0.000000
H             -3.344293         -1.241884          0.000000
H             -2.830265         -2.756160          0.000000

