6

O              0.000000         -0.009833          0.000000
H             -0.799571         -0.580965          0.000000
H              0.799571         -0.580965          0.000000
O             -3.906856         -2.793420          0.000000
H             -4.884579         -2.695626          0.000000
H             -3.682280         -3.750014          0.000000

