6

O              0.000000         -0.009833          0.000000
H             -0.799571         -0.580965          0.000000
H              0.799571         -0.580965          0.000000
O             -4.186076         -2.983739          0.000000
H             -4.808280         -2.223233          0.000000
H             -4.703691         -3.818952          0.000000

