6

O              0.000000         -0.009833          0.000000
H             -0.799571         -0.580965          0.000000
H              0.799571         -0.580965          0.000000
O             -4.121161         -2.937370          0.000000
H             -4.743364         -2.176864          0.000000
H             -4.638775         -3.772583          0.000000

