6

O              0.000000         -0.009833          0.000000
H             -0.799571         -0.580965          0.000000
H              0.799571         -0.580965          0.000000
O             -1.703076         -1.209479          0.000000
H             -2.274208         -0.409908          0.000000
H             -2.274208         -2.009051          0.000000

