6

O              0.000000         -0.009833          0.000000
H             -0.799571         -0.580965          0.000000
H              0.799571         -0.580965          0.000000
O             -2.479183         -1.772861          0.000000
H             -3.448417         -1.611330          0.000000
H             -2.317652         -2.742095          0.000000

