6

O              0.000000         -0.009833          0.000000
H             -0.799571         -0.580965          0.000000
H              0.799571         -0.580965          0.000000
O             -3.179157         -2.268138          0.000000
H             -4.012797         -1.747994          0.000000
H             -3.400831         -3.225409          0.000000

