6

O              0.000000         -0.009833          0.000000
H             -0.799571         -0.580965          0.000000
H              0.799571         -0.580965          0.000000
O             -3.292986         -2.348682          0.000000
H             -4.090822         -1.775128          0.000000
H             -3.576794         -3.289405          0.000000

