6

O              0.000000         -0.009833          0.000000
H             -0.799571         -0.580965          0.000000
H              0.799571         -0.580965          0.000000
O             -3.325945         -2.369349          0.000000
H             -3.948148         -1.608843          0.000000
H             -3.843559         -3.204562          0.000000

