6

O              0.000000         -0.009833          0.000000
H             -0.799571         -0.580965          0.000000
H              0.799571         -0.580965          0.000000
O             -4.818690         -3.437739          0.000000
H             -5.577305         -2.813232          0.000000
H             -5.163416         -4.357886          0.000000

