6

O              0.000000         -0.009833          0.000000
H             -0.799571         -0.580965          0.000000
H              0.799571         -0.580965          0.000000
O             -2.652666         -1.903067          0.000000
H             -3.548296         -2.307236          0.000000
H             -1.979881         -2.619214          0.000000

