6

O              0.000000         -0.009833          0.000000
H             -0.799571         -0.580965          0.000000
H              0.799571         -0.580965          0.000000
O             -3.942580         -2.810495          0.000000
H             -4.613191         -2.092312          0.000000
H             -4.404461         -3.677774          0.000000

