6

O              0.000000         -0.009833          0.000000
H             -0.799571         -0.580965          0.000000
H              0.799571         -0.580965          0.000000
O             -4.166519         -2.978896          0.000000
H             -5.144242         -2.881102          0.000000
H             -3.941942         -3.935490          0.000000

