6

O              0.000000         -0.009833          0.000000
H             -0.799571         -0.580965          0.000000
H              0.799571         -0.580965          0.000000
O             -1.831250         -1.307681          0.000000
H             -2.750347         -0.960165          0.000000
H             -1.861911         -2.289804          0.000000

