6

O              0.000000         -0.009833          0.000000
H             -0.799571         -0.580965          0.000000
H              0.799571         -0.580965          0.000000
O             -3.130697         -2.232759          0.000000
H             -3.928533         -1.659205          0.000000
H             -3.414505         -3.173482          0.000000

