6

O              0.000000         -0.009833          0.000000
H             -0.799571         -0.580965          0.000000
H              0.799571         -0.580965          0.000000
O             -3.495294         -2.506033          0.000000
H             -4.330507         -3.023648          0.000000
H             -2.734788         -3.128236          0.000000

