6

O              0.000000         -0.009833          0.000000
H             -0.799571         -0.580965          0.000000
H              0.799571         -0.580965          0.000000
O             -2.352148         -1.674453          0.000000
H             -3.022758         -0.956270          0.000000
H             -2.814028         -2.541732          0.000000

