6

O              0.000000         -0.009833          0.000000
H             -0.799571         -0.580965          0.000000
H              0.799571         -0.580965          0.000000
O             -2.819520         -2.016739          0.000000
H             -3.797243         -1.918944          0.000000
H             -2.594944         -2.973332          0.000000

