6

O              0.000000         -0.009833          0.000000
H             -0.799571         -0.580965          0.000000
H              0.799571         -0.580965          0.000000
O             -3.665455         -2.617060          0.000000
H             -4.559856         -2.210177          0.000000
H             -3.760284         -3.595075          0.000000

