6

O              0.000000         -0.009833          0.000000
H             -0.799571         -0.580965          0.000000
H              0.799571         -0.580965          0.000000
O             -4.329277         -3.094379          0.000000
H             -5.298511         -2.932848          0.000000
H             -4.167746         -4.063613          0.000000

