6

O              0.000000         -0.009833          0.000000
H             -0.799571         -0.580965          0.000000
H              0.799571         -0.580965          0.000000
O             -2.920243         -2.078899          0.000000
H             -3.491375         -1.279328          0.000000
H             -3.491375         -2.878471          0.000000

