6

O              0.000000         -0.009833          0.000000
H             -0.799571         -0.580965          0.000000
H              0.799571         -0.580965          0.000000
O             -1.702062         -1.213828          0.000000
H             -2.567936         -0.749320          0.000000
H             -1.860653         -2.183547          0.000000

