6

O              0.000000         -0.009833          0.000000
H             -0.799571         -0.580965          0.000000
H              0.799571         -0.580965          0.000000
O             -3.583188         -2.560665          0.000000
H             -4.539782         -2.336089          0.000000
H             -3.485394         -3.538389          0.000000

