6

O              0.000000         -0.009833          0.000000
H             -0.799571         -0.580965          0.000000
H              0.799571         -0.580965          0.000000
O             -2.025622         -1.447311          0.000000
H             -2.965480         -1.160651          0.000000
H             -1.991983         -2.429336          0.000000

