6

O              0.000000         -0.009833          0.000000
H             -0.799571         -0.580965          0.000000
H              0.799571         -0.580965          0.000000
O             -3.835457         -2.749491          0.000000
H             -4.635029         -3.320623          0.000000
H             -3.035886         -3.320623          0.000000

