6

O              0.000000         -0.009833          0.000000
H             -0.799571         -0.580965          0.000000
H              0.799571         -0.580965          0.000000
O             -2.686366         -1.925919          0.000000
H             -3.627089         -2.209727          0.000000
H             -2.112812         -2.723755          0.000000

