6

O              0.000000         -0.009833          0.000000
H             -0.799571         -0.580965          0.000000
H              0.799571         -0.580965          0.000000
O             -3.479705         -2.494377          0.000000
H             -4.346984         -2.956258          0.000000
H             -2.761522         -3.164988          0.000000

