6

O              0.000000         -0.009833          0.000000
H             -0.799571         -0.580965          0.000000
H              0.799571         -0.580965          0.000000
O             -2.609454         -1.865130          0.000000
H             -3.566048         -1.640553          0.000000
H             -2.511660         -2.842853          0.000000

