6

O              0.000000         -0.009833          0.000000
H             -0.799571         -0.580965          0.000000
H              0.799571         -0.580965          0.000000
O             -3.033657         -2.161963          0.000000
H             -3.749803         -1.489178          0.000000
H             -3.437826         -3.057594          0.000000

