6

O              0.000000         -0.009833          0.000000
H             -0.799571         -0.580965          0.000000
H              0.799571         -0.580965          0.000000
O             -2.752470         -1.971796          0.000000
H             -3.722189         -2.130387          0.000000
H             -2.287962         -2.837670          0.000000

