6

O              0.000000         -0.009833          0.000000
H             -0.799571         -0.580965          0.000000
H              0.799571         -0.580965          0.000000
O             -4.065207         -2.911448          0.000000
H             -4.985354         -3.256175          0.000000
H             -3.440700         -3.670063          0.000000

