6

O              0.000000         -0.009833          0.000000
H             -0.799571         -0.580965          0.000000
H              0.799571         -0.580965          0.000000
O             -2.644352         -1.881831          0.000000
H             -3.215484         -1.082259          0.000000
H             -3.215484         -2.681402          0.000000

