6

O              0.000000         -0.009833          0.000000
H             -0.799571         -0.580965          0.000000
H              0.799571         -0.580965          0.000000
O             -4.621838         -3.302570          0.000000
H             -5.578431         -3.077994          0.000000
H             -4.524043         -4.280293          0.000000

