6

O              0.000000         -0.009833          0.000000
H             -0.799571         -0.580965          0.000000
H              0.799571         -0.580965          0.000000
O             -3.274839         -2.340413          0.000000
H             -4.231433         -2.115836          0.000000
H             -3.177044         -3.318136          0.000000

