6

O              0.000000         -0.009833          0.000000
H             -0.799571         -0.580965          0.000000
H              0.799571         -0.580965          0.000000
O             -2.643603         -1.885594          0.000000
H             -3.477243         -1.365449          0.000000
H             -2.865278         -2.842864          0.000000

