6

O              0.000000         -0.009833          0.000000
H             -0.799571         -0.580965          0.000000
H              0.799571         -0.580965          0.000000
O             -3.917245         -2.807432          0.000000
H             -4.752458         -3.325046          0.000000
H             -3.156739         -3.429635          0.000000

