6

O              0.000000         -0.009833          0.000000
H             -0.799571         -0.580965          0.000000
H              0.799571         -0.580965          0.000000
O             -2.641472         -1.888784          0.000000
H             -3.610706         -1.727253          0.000000
H             -2.479941         -2.858017          0.000000

