6

O              0.000000         -0.009833          0.000000
H             -0.799571         -0.580965          0.000000
H              0.799571         -0.580965          0.000000
O             -2.723839         -1.945255          0.000000
H             -3.642936         -1.597740          0.000000
H             -2.754500         -2.927378          0.000000

