6

O              0.000000         -0.009833          0.000000
H             -0.799571         -0.580965          0.000000
H              0.799571         -0.580965          0.000000
O             -4.429196         -3.159525          0.000000
H             -5.187811         -2.535018          0.000000
H             -4.773923         -4.079671          0.000000

