6

O              0.000000         -0.009833          0.000000
H             -0.799571         -0.580965          0.000000
H              0.799571         -0.580965          0.000000
O             -4.195654         -3.004000          0.000000
H             -5.136376         -3.287808          0.000000
H             -3.622100         -3.801835          0.000000

