6

O              0.000000         -0.009833          0.000000
H             -0.799571         -0.580965          0.000000
H              0.799571         -0.580965          0.000000
O             -2.350575         -1.678633          0.000000
H             -3.269671         -1.331118          0.000000
H             -2.381235         -2.660756          0.000000

