6

O              0.000000         -0.009833          0.000000
H             -0.799571         -0.580965          0.000000
H              0.799571         -0.580965          0.000000
O             -3.358423         -2.391890          0.000000
H             -3.929555         -1.592319          0.000000
H             -3.929555         -3.191462          0.000000

