6

O              0.000000         -0.009833          0.000000
H             -0.799571         -0.580965          0.000000
H              0.799571         -0.580965          0.000000
O             -2.449083         -1.745884          0.000000
H             -3.246919         -1.172330          0.000000
H             -2.732892         -2.686607          0.000000

