6

O              0.000000         -0.009833          0.000000
H             -0.799571         -0.580965          0.000000
H              0.799571         -0.580965          0.000000
O             -2.215113         -1.589930          0.000000
H             -3.135259         -1.934657          0.000000
H             -1.590606         -2.348545          0.000000

