6

O              0.000000         -0.009833          0.000000
H             -0.799571         -0.580965          0.000000
H              0.799571         -0.580965          0.000000
O             -4.517071         -3.236366          0.000000
H             -5.316642         -3.807498          0.000000
H             -3.717500         -3.807498          0.000000

