6

O              0.000000         -0.009833          0.000000
H             -0.799571         -0.580965          0.000000
H              0.799571         -0.580965          0.000000
O             -2.505331         -1.798905          0.000000
H             -3.340544         -2.316519          0.000000
H             -1.744825         -2.421108          0.000000

