6

O              0.000000         -0.009833          0.000000
H             -0.799571         -0.580965          0.000000
H              0.799571         -0.580965          0.000000
O             -4.879023         -3.490079          0.000000
H             -5.857038         -3.584908          0.000000
H             -4.472140         -4.384480          0.000000

