6

O              0.000000         -0.009833          0.000000
H             -0.799571         -0.580965          0.000000
H              0.799571         -0.580965          0.000000
O             -4.315844         -3.077117          0.000000
H             -4.986455         -2.358934          0.000000
H             -4.777725         -3.944396          0.000000

