6

O              0.000000         -0.009833          0.000000
H             -0.799571         -0.580965          0.000000
H              0.799571         -0.580965          0.000000
O             -3.697913         -2.640245          0.000000
H             -4.592314         -2.233361          0.000000
H             -3.792742         -3.618260          0.000000

