6

O              0.000000         -0.009833          0.000000
H             -0.799571         -0.580965          0.000000
H              0.799571         -0.580965          0.000000
O             -4.542944         -3.240044          0.000000
H             -5.259091         -2.567259          0.000000
H             -4.947113         -4.135674          0.000000

