6

O              0.000000         -0.009833          0.000000
H             -0.799571         -0.580965          0.000000
H              0.799571         -0.580965          0.000000
O             -4.371011         -3.132036          0.000000
H             -5.170582         -3.703168          0.000000
H             -3.571440         -3.703168          0.000000

