6

O              0.000000         -0.009833          0.000000
H             -0.799571         -0.580965          0.000000
H              0.799571         -0.580965          0.000000
O             -4.380844         -3.122203          0.000000
H             -4.951976         -2.322632          0.000000
H             -4.951976         -3.921774          0.000000

