6

O              0.000000         -0.009833          0.000000
H             -0.799571         -0.580965          0.000000
H              0.799571         -0.580965          0.000000
O             -2.464517         -1.759232          0.000000
H             -3.358917         -1.352349          0.000000
H             -2.559346         -2.737248          0.000000

