6

O              0.000000         -0.009833          0.000000
H             -0.799571         -0.580965          0.000000
H              0.799571         -0.580965          0.000000
O             -3.642629         -2.610195          0.000000
H             -4.538259         -3.014365          0.000000
H             -2.969843         -3.326342          0.000000

