6

O              0.000000         -0.009833          0.000000
H             -0.799571         -0.580965          0.000000
H              0.799571         -0.580965          0.000000
O             -2.804201         -2.004237          0.000000
H             -3.760794         -1.779661          0.000000
H             -2.706406         -2.981960          0.000000

