6

O              0.000000         -0.009833          0.000000
H             -0.799571         -0.580965          0.000000
H              0.799571         -0.580965          0.000000
O             -4.313488         -3.082317          0.000000
H             -5.270082         -2.857741          0.000000
H             -4.215694         -4.060040          0.000000

