6

O              0.000000         -0.009833          0.000000
H             -0.799571         -0.580965          0.000000
H              0.799571         -0.580965          0.000000
O             -3.974108         -2.836746          0.000000
H             -4.839982         -2.372237          0.000000
H             -4.132699         -3.806465          0.000000

