6

O              0.000000         -0.009833          0.000000
H             -0.799571         -0.580965          0.000000
H              0.799571         -0.580965          0.000000
O             -2.364614         -1.692563          0.000000
H             -3.346639         -1.658925          0.000000
H             -2.077954         -2.632421          0.000000

