6

O              0.000000         -0.009833          0.000000
H             -0.799571         -0.580965          0.000000
H              0.799571         -0.580965          0.000000
O             -3.073342         -2.204634          0.000000
H             -3.908555         -2.722249          0.000000
H             -2.312836         -2.826838          0.000000

