6

O              0.000000         -0.009833          0.000000
H             -0.799571         -0.580965          0.000000
H              0.799571         -0.580965          0.000000
O             -4.492414         -3.209335          0.000000
H             -5.432272         -2.922675          0.000000
H             -4.458775         -4.191361          0.000000

