6

O              0.000000         -0.009833          0.000000
H             -0.799571         -0.580965          0.000000
H              0.799571         -0.580965          0.000000
O             -2.513999         -1.792253          0.000000
H             -3.311835         -1.218699          0.000000
H             -2.797807         -2.732976          0.000000

