6

O              0.000000         -0.009833          0.000000
H             -0.799571         -0.580965          0.000000
H              0.799571         -0.580965          0.000000
O             -3.254378         -2.331648          0.000000
H             -4.195100         -2.615456          0.000000
H             -2.680824         -3.129484          0.000000

