6

O              0.000000         -0.009833          0.000000
H             -0.799571         -0.580965          0.000000
H              0.799571         -0.580965          0.000000
O             -3.893788         -2.776353          0.000000
H             -4.609935         -2.103568          0.000000
H             -4.297957         -3.671984          0.000000

