6

O              0.000000         -0.009833          0.000000
H             -0.799571         -0.580965          0.000000
H              0.799571         -0.580965          0.000000
O             -4.510675         -3.214941          0.000000
H             -5.081807         -2.415370          0.000000
H             -5.081807         -4.014513          0.000000

