6

O              0.000000         -0.009833          0.000000
H             -0.799571         -0.580965          0.000000
H              0.799571         -0.580965          0.000000
O             -4.265585         -3.046520          0.000000
H             -5.184682         -2.699005          0.000000
H             -4.296246         -4.028643          0.000000

