6

O              0.000000         -0.009833          0.000000
H             -0.799571         -0.580965          0.000000
H              0.799571         -0.580965          0.000000
O             -2.559858         -1.831262          0.000000
H             -3.537581         -1.733468          0.000000
H             -2.335282         -2.787856          0.000000

