6

O              0.000000         -0.009833          0.000000
H             -0.799571         -0.580965          0.000000
H              0.799571         -0.580965          0.000000
O             -2.702595         -1.937511          0.000000
H             -3.643318         -2.221319          0.000000
H             -2.129041         -2.735347          0.000000

