6

O              0.000000         -0.009833          0.000000
H             -0.799571         -0.580965          0.000000
H              0.799571         -0.580965          0.000000
O             -4.426181         -3.164373          0.000000
H             -5.403904         -3.066579          0.000000
H             -4.201605         -4.120967          0.000000

