6

O              0.000000         -0.009833          0.000000
H             -0.799571         -0.580965          0.000000
H              0.799571         -0.580965          0.000000
O             -3.162663         -2.257132          0.000000
H             -4.028537         -1.792624          0.000000
H             -3.321254         -3.226851          0.000000

