6

O              0.000000         -0.009833          0.000000
H             -0.799571         -0.580965          0.000000
H              0.799571         -0.580965          0.000000
O             -1.669870         -1.190058          0.000000
H             -2.503509         -0.669913          0.000000
H             -1.891544         -2.147328          0.000000

