6

O              0.000000         -0.009833          0.000000
H             -0.799571         -0.580965          0.000000
H              0.799571         -0.580965          0.000000
O             -1.994861         -1.420685          0.000000
H             -2.753476         -0.796178          0.000000
H             -2.339588         -2.340832          0.000000

