6

O              0.000000         -0.009833          0.000000
H             -0.799571         -0.580965          0.000000
H              0.799571         -0.580965          0.000000
O             -3.001388         -2.136861          0.000000
H             -3.572520         -1.337289          0.000000
H             -3.572520         -2.936432          0.000000

