6

O              0.000000         -0.009833          0.000000
H             -0.799571         -0.580965          0.000000
H              0.799571         -0.580965          0.000000
O             -3.082532         -2.194822          0.000000
H             -3.653664         -1.395250          0.000000
H             -3.653664         -2.994393          0.000000

