6

O              0.000000         -0.009833          0.000000
H             -0.799571         -0.580965          0.000000
H              0.799571         -0.580965          0.000000
O             -2.333123         -1.668531          0.000000
H             -3.302357         -1.507000          0.000000
H             -2.171592         -2.637764          0.000000

