6

O              0.000000         -0.009833          0.000000
H             -0.799571         -0.580965          0.000000
H              0.799571         -0.580965          0.000000
O             -4.746194         -3.398469          0.000000
H             -5.641824         -3.802638          0.000000
H             -4.073408         -4.114616          0.000000

