6

O              0.000000         -0.009833          0.000000
H             -0.799571         -0.580965          0.000000
H              0.799571         -0.580965          0.000000
O             -4.559341         -3.250361          0.000000
H             -5.181544         -2.489855          0.000000
H             -5.076956         -4.085574          0.000000

