6

O              0.000000         -0.009833          0.000000
H             -0.799571         -0.580965          0.000000
H              0.799571         -0.580965          0.000000
O             -2.309941         -1.659819          0.000000
H             -3.109512         -2.230951          0.000000
H             -1.510370         -2.230951          0.000000

