6

O              0.000000         -0.009833          0.000000
H             -0.799571         -0.580965          0.000000
H              0.799571         -0.580965          0.000000
O             -4.168551         -2.976420          0.000000
H             -5.062951         -2.569537          0.000000
H             -4.263380         -3.954435          0.000000

