6

O              0.000000         -0.009833          0.000000
H             -0.799571         -0.580965          0.000000
H              0.799571         -0.580965          0.000000
O             -3.616054         -2.583353          0.000000
H             -4.555912         -2.296693          0.000000
H             -3.582415         -3.565378          0.000000

