6

O              0.000000         -0.009833          0.000000
H             -0.799571         -0.580965          0.000000
H              0.799571         -0.580965          0.000000
O             -1.719284         -1.221715          0.000000
H             -2.341487         -0.461209          0.000000
H             -2.236898         -2.056928          0.000000

