6

O              0.000000         -0.009833          0.000000
H             -0.799571         -0.580965          0.000000
H              0.799571         -0.580965          0.000000
O             -1.765960         -1.261834          0.000000
H             -2.705817         -0.975175          0.000000
H             -1.732321         -2.243860          0.000000

