6

O              0.000000         -0.009833          0.000000
H             -0.799571         -0.580965          0.000000
H              0.799571         -0.580965          0.000000
O             -3.747728         -2.672023          0.000000
H             -4.463875         -1.999238          0.000000
H             -4.151897         -3.567653          0.000000

