6

O              0.000000         -0.009833          0.000000
H             -0.799571         -0.580965          0.000000
H              0.799571         -0.580965          0.000000
O             -3.030496         -2.167438          0.000000
H             -4.008219         -2.069644          0.000000
H             -2.805920         -3.124032          0.000000

