6

O              0.000000         -0.009833          0.000000
H             -0.799571         -0.580965          0.000000
H              0.799571         -0.580965          0.000000
O             -3.682981         -2.624379          0.000000
H             -4.305184         -1.863873          0.000000
H             -4.200595         -3.459592          0.000000

