6

O              0.000000         -0.009833          0.000000
H             -0.799571         -0.580965          0.000000
H              0.799571         -0.580965          0.000000
O             -2.833029         -2.030023          0.000000
H             -3.790299         -2.251697          0.000000
H             -2.312884         -2.863662          0.000000

