6

O              0.000000         -0.009833          0.000000
H             -0.799571         -0.580965          0.000000
H              0.799571         -0.580965          0.000000
O             -2.150197         -1.543561          0.000000
H             -3.070343         -1.888288          0.000000
H             -1.525690         -2.302176          0.000000

