6

O              0.000000         -0.009833          0.000000
H             -0.799571         -0.580965          0.000000
H              0.799571         -0.580965          0.000000
O             -1.782903         -1.272357          0.000000
H             -2.677303         -0.865474          0.000000
H             -1.877732         -2.250372          0.000000

