6

O              0.000000         -0.009833          0.000000
H             -0.799571         -0.580965          0.000000
H              0.799571         -0.580965          0.000000
O             -1.991349         -1.425941          0.000000
H             -2.973375         -1.392302          0.000000
H             -1.704689         -2.365799          0.000000

