6

O              0.000000         -0.009833          0.000000
H             -0.799571         -0.580965          0.000000
H              0.799571         -0.580965          0.000000
O             -2.829909         -2.030750          0.000000
H             -3.665122         -2.548365          0.000000
H             -2.069403         -2.652954          0.000000

