6

O              0.000000         -0.009833          0.000000
H             -0.799571         -0.580965          0.000000
H              0.799571         -0.580965          0.000000
O             -2.286568         -1.630564          0.000000
H             -3.120208         -1.110419          0.000000
H             -2.508242         -2.587834          0.000000

