6

O              0.000000         -0.009833          0.000000
H             -0.799571         -0.580965          0.000000
H              0.799571         -0.580965          0.000000
O             -2.335255         -1.665341          0.000000
H             -3.168894         -1.145196          0.000000
H             -2.556929         -2.622611          0.000000

