6

O              0.000000         -0.009833          0.000000
H             -0.799571         -0.580965          0.000000
H              0.799571         -0.580965          0.000000
O             -1.863333         -1.331388          0.000000
H             -2.803191         -1.044729          0.000000
H             -1.829694         -2.313414          0.000000

