6

O              0.000000         -0.009833          0.000000
H             -0.799571         -0.580965          0.000000
H              0.799571         -0.580965          0.000000
O             -2.766268         -1.984213          0.000000
H             -3.661899         -2.388382          0.000000
H             -2.093483         -2.700360          0.000000

