6

O              0.000000         -0.009833          0.000000
H             -0.799571         -0.580965          0.000000
H              0.799571         -0.580965          0.000000
O             -3.893642         -2.776980          0.000000
H             -4.652257         -2.152473          0.000000
H             -4.238369         -3.697127          0.000000

