6

O              0.000000         -0.009833          0.000000
H             -0.799571         -0.580965          0.000000
H              0.799571         -0.580965          0.000000
O             -4.095120         -2.934968          0.000000
H             -4.894691         -3.506100          0.000000
H             -3.295548         -3.506100          0.000000

