6

O              0.000000         -0.009833          0.000000
H             -0.799571         -0.580965          0.000000
H              0.799571         -0.580965          0.000000
O             -4.524872         -3.232519          0.000000
H             -5.464730         -2.945860          0.000000
H             -4.491233         -4.214545          0.000000

