6

O              0.000000         -0.009833          0.000000
H             -0.799571         -0.580965          0.000000
H              0.799571         -0.580965          0.000000
O             -2.342399         -1.683003          0.000000
H             -3.141970         -2.254135          0.000000
H             -1.542827         -2.254135          0.000000

