6

O              0.000000         -0.009833          0.000000
H             -0.799571         -0.580965          0.000000
H              0.799571         -0.580965          0.000000
O             -4.666292         -3.340175          0.000000
H             -5.607014         -3.623983          0.000000
H             -4.092738         -4.138011          0.000000

