6

O              0.000000         -0.009833          0.000000
H             -0.799571         -0.580965          0.000000
H              0.799571         -0.580965          0.000000
O             -3.219402         -2.308964          0.000000
H             -4.054616         -2.826579          0.000000
H             -2.458897         -2.931168          0.000000

