6

O              0.000000         -0.009833          0.000000
H             -0.799571         -0.580965          0.000000
H              0.799571         -0.580965          0.000000
O             -2.788380         -1.992147          0.000000
H             -3.728238         -1.705488          0.000000
H             -2.754741         -2.974173          0.000000

