6

O              0.000000         -0.009833          0.000000
H             -0.799571         -0.580965          0.000000
H              0.799571         -0.580965          0.000000
O             -3.501604         -2.503174          0.000000
H             -4.470837         -2.341643          0.000000
H             -3.340073         -3.472407          0.000000

