6

O              0.000000         -0.009833          0.000000
H             -0.799571         -0.580965          0.000000
H              0.799571         -0.580965          0.000000
O             -4.445011         -3.172335          0.000000
H             -5.278651         -2.652190          0.000000
H             -4.666686         -4.129605          0.000000

