6

O              0.000000         -0.009833          0.000000
H             -0.799571         -0.580965          0.000000
H              0.799571         -0.580965          0.000000
O             -2.376140         -1.706103          0.000000
H             -3.243419         -2.167984          0.000000
H             -1.657957         -2.376714          0.000000

