6

O              0.000000         -0.009833          0.000000
H             -0.799571         -0.580965          0.000000
H              0.799571         -0.580965          0.000000
O             -1.864351         -1.329751          0.000000
H             -2.730225         -0.865243          0.000000
H             -2.022942         -2.299470          0.000000

