6

O              0.000000         -0.009833          0.000000
H             -0.799571         -0.580965          0.000000
H              0.799571         -0.580965          0.000000
O             -3.495934         -2.505970          0.000000
H             -4.363213         -2.967851          0.000000
H             -2.777751         -3.176581          0.000000

