6

O              0.000000         -0.009833          0.000000
H             -0.799571         -0.580965          0.000000
H              0.799571         -0.580965          0.000000
O             -2.003510         -1.439377          0.000000
H             -2.899140         -1.843546          0.000000
H             -1.330725         -2.155523          0.000000

