6

O              0.000000         -0.009833          0.000000
H             -0.799571         -0.580965          0.000000
H              0.799571         -0.580965          0.000000
O             -2.882302         -2.064534          0.000000
H             -3.852021         -2.223125          0.000000
H             -2.417793         -2.930408          0.000000

