6

O              0.000000         -0.009833          0.000000
H             -0.799571         -0.580965          0.000000
H              0.799571         -0.580965          0.000000
O             -4.147569         -2.968996          0.000000
H             -5.104840         -3.190670          0.000000
H             -3.627425         -3.802636          0.000000

