6

O              0.000000         -0.009833          0.000000
H             -0.799571         -0.580965          0.000000
H              0.799571         -0.580965          0.000000
O             -2.482063         -1.765908          0.000000
H             -3.053195         -0.966337          0.000000
H             -3.053195         -2.565479          0.000000

