6

O              0.000000         -0.009833          0.000000
H             -0.799571         -0.580965          0.000000
H              0.799571         -0.580965          0.000000
O             -2.926639         -2.100325          0.000000
H             -3.726210         -2.671457          0.000000
H             -2.127068         -2.671457          0.000000

