6

O              0.000000         -0.009833          0.000000
H             -0.799571         -0.580965          0.000000
H              0.799571         -0.580965          0.000000
O             -1.743213         -1.254005          0.000000
H             -2.610492         -1.715886          0.000000
H             -1.025030         -1.924616          0.000000

