6

O              0.000000         -0.009833          0.000000
H             -0.799571         -0.580965          0.000000
H              0.799571         -0.580965          0.000000
O             -3.856603         -2.759766          0.000000
H             -4.834618         -2.854595          0.000000
H             -3.449720         -3.654167          0.000000

