6

O              0.000000         -0.009833          0.000000
H             -0.799571         -0.580965          0.000000
H              0.799571         -0.580965          0.000000
O             -4.185762         -2.985641          0.000000
H             -4.944378         -2.361134          0.000000
H             -4.530489         -3.905787          0.000000

