6

O              0.000000         -0.009833          0.000000
H             -0.799571         -0.580965          0.000000
H              0.799571         -0.580965          0.000000
O             -4.387883         -3.143607          0.000000
H             -5.223096         -3.661222          0.000000
H             -3.627377         -3.765811          0.000000

