6

O              0.000000         -0.009833          0.000000
H             -0.799571         -0.580965          0.000000
H              0.799571         -0.580965          0.000000
O             -4.721567         -3.366924          0.000000
H             -5.392178         -2.648741          0.000000
H             -5.183448         -4.234203          0.000000

