6

O              0.000000         -0.009833          0.000000
H             -0.799571         -0.580965          0.000000
H              0.799571         -0.580965          0.000000
O             -4.591820         -3.272902          0.000000
H             -5.162952         -2.473331          0.000000
H             -5.162952         -4.072474          0.000000

