6

O              0.000000         -0.009833          0.000000
H             -0.799571         -0.580965          0.000000
H              0.799571         -0.580965          0.000000
O             -3.191764         -2.284144          0.000000
H             -4.173888         -2.314805          0.000000
H             -2.844249         -3.203241          0.000000

