6

O              0.000000         -0.009833          0.000000
H             -0.799571         -0.580965          0.000000
H              0.799571         -0.580965          0.000000
O             -4.526904         -3.226533          0.000000
H             -5.098036         -2.426962          0.000000
H             -5.098036         -4.026105          0.000000

