6

O              0.000000         -0.009833          0.000000
H             -0.799571         -0.580965          0.000000
H              0.799571         -0.580965          0.000000
O             -3.127869         -2.236992          0.000000
H             -4.105592         -2.139197          0.000000
H             -2.903293         -3.193585          0.000000

