6

O              0.000000         -0.009833          0.000000
H             -0.799571         -0.580965          0.000000
H              0.799571         -0.580965          0.000000
O             -2.280644         -1.636112          0.000000
H             -3.221366         -1.919920          0.000000
H             -1.707090         -2.433948          0.000000

