6

O              0.000000         -0.009833          0.000000
H             -0.799571         -0.580965          0.000000
H              0.799571         -0.580965          0.000000
O             -2.489102         -1.787312          0.000000
H             -3.324315         -2.304927          0.000000
H             -1.728596         -2.409516          0.000000

