6

O              0.000000         -0.009833          0.000000
H             -0.799571         -0.580965          0.000000
H              0.799571         -0.580965          0.000000
O             -2.642320         -1.887817          0.000000
H             -3.582178         -1.601157          0.000000
H             -2.608681         -2.869843          0.000000

