6

O              0.000000         -0.009833          0.000000
H             -0.799571         -0.580965          0.000000
H              0.799571         -0.580965          0.000000
O             -2.934032         -2.096975          0.000000
H             -3.890626         -1.872399          0.000000
H             -2.836238         -3.074698          0.000000

