6

O              0.000000         -0.009833          0.000000
H             -0.799571         -0.580965          0.000000
H              0.799571         -0.580965          0.000000
O             -4.478134         -3.193040          0.000000
H             -5.148745         -2.474857          0.000000
H             -4.940014         -4.060319          0.000000

