6

O              0.000000         -0.009833          0.000000
H             -0.799571         -0.580965          0.000000
H              0.799571         -0.580965          0.000000
O             -3.239905         -2.319260          0.000000
H             -4.217920         -2.414089          0.000000
H             -2.833022         -3.213661          0.000000

