6

O              0.000000         -0.009833          0.000000
H             -0.799571         -0.580965          0.000000
H              0.799571         -0.580965          0.000000
O             -2.563123         -1.825153          0.000000
H             -3.233734         -1.106970          0.000000
H             -3.025004         -2.692431          0.000000

