6

O              0.000000         -0.009833          0.000000
H             -0.799571         -0.580965          0.000000
H              0.799571         -0.580965          0.000000
O             -3.186944         -2.285780          0.000000
H             -4.022158         -2.803395          0.000000
H             -2.426439         -2.907983          0.000000

