6

O              0.000000         -0.009833          0.000000
H             -0.799571         -0.580965          0.000000
H              0.799571         -0.580965          0.000000
O             -3.189462         -2.285279          0.000000
H             -4.130185         -2.569087          0.000000
H             -2.615908         -3.083115          0.000000

