6

O              0.000000         -0.009833          0.000000
H             -0.799571         -0.580965          0.000000
H              0.799571         -0.580965          0.000000
O             -4.120847         -2.939272          0.000000
H             -4.879462         -2.314765          0.000000
H             -4.465574         -3.859418          0.000000

