6

O              0.000000         -0.009833          0.000000
H             -0.799571         -0.580965          0.000000
H              0.799571         -0.580965          0.000000
O             -4.573151         -3.267794          0.000000
H             -5.529745         -3.043217          0.000000
H             -4.475356         -4.245517          0.000000

