6

O              0.000000         -0.009833          0.000000
H             -0.799571         -0.580965          0.000000
H              0.799571         -0.580965          0.000000
O             -3.129187         -2.235585          0.000000
H             -4.069045         -1.948925          0.000000
H             -3.095548         -3.217610          0.000000

