6

O              0.000000         -0.009833          0.000000
H             -0.799571         -0.580965          0.000000
H              0.799571         -0.580965          0.000000
O             -4.002095         -2.864400          0.000000
H             -4.971814         -3.022991          0.000000
H             -3.537587         -3.730274          0.000000

