6

O              0.000000         -0.009833          0.000000
H             -0.799571         -0.580965          0.000000
H              0.799571         -0.580965          0.000000
O             -3.922588         -2.805421          0.000000
H             -4.904614         -2.771782          0.000000
H             -3.635928         -3.745279          0.000000

