6

O              0.000000         -0.009833          0.000000
H             -0.799571         -0.580965          0.000000
H              0.799571         -0.580965          0.000000
O             -4.866394         -3.474888          0.000000
H             -5.760794         -3.068004          0.000000
H             -4.961223         -4.452903          0.000000

