6

O              0.000000         -0.009833          0.000000
H             -0.799571         -0.580965          0.000000
H              0.799571         -0.580965          0.000000
O             -1.875524         -1.346079          0.000000
H             -2.832794         -1.567753          0.000000
H             -1.355379         -2.179719          0.000000

