6

O              0.000000         -0.009833          0.000000
H             -0.799571         -0.580965          0.000000
H              0.799571         -0.580965          0.000000
O             -3.114242         -2.221770          0.000000
H             -3.947881         -1.701625          0.000000
H             -3.335916         -3.179040          0.000000

