6

O              0.000000         -0.009833          0.000000
H             -0.799571         -0.580965          0.000000
H              0.799571         -0.580965          0.000000
O             -1.767907         -1.257132          0.000000
H             -2.438518         -0.538949          0.000000
H             -2.229788         -2.124411          0.000000

