6

O              0.000000         -0.009833          0.000000
H             -0.799571         -0.580965          0.000000
H              0.799571         -0.580965          0.000000
O             -0.009498          2.015546          0.000000
H             -0.354225          2.935692          0.000000
H             -0.768113          1.391039          0.000000

