6

O              0.000000         -0.009833          0.000000
H             -0.799571         -0.580965          0.000000
H              0.799571         -0.580965          0.000000
O             -0.005463          1.595708          0.000000
H              0.342052          2.514805          0.000000
H             -0.987586          1.626368          0.000000

