6

O              0.000000         -0.009833          0.000000
H             -0.799571         -0.580965          0.000000
H              0.799571         -0.580965          0.000000
O             -0.006953          1.727444          0.000000
H              0.154578          2.696677          0.000000
H             -0.976187          1.565913          0.000000

