6

O              0.000000         -0.009833          0.000000
H             -0.799571         -0.580965          0.000000
H              0.799571         -0.580965          0.000000
O             -0.001918          3.432011          0.000000
H              0.670867          4.148158          0.000000
H             -0.897548          3.836181          0.000000

