6

O              0.000000         -0.009833          0.000000
H             -0.799571         -0.580965          0.000000
H              0.799571         -0.580965          0.000000
O             -0.007393          1.726974          0.000000
H              0.090401          2.704697          0.000000
H             -0.963987          1.502398          0.000000

