6

O              0.000000         -0.009833          0.000000
H             -0.799571         -0.580965          0.000000
H              0.799571         -0.580965          0.000000
O             -0.008176          5.289257          0.000000
H             -0.038837          6.271381          0.000000
H             -0.927273          4.941742          0.000000

