6

O              0.000000         -0.009833          0.000000
H             -0.799571         -0.580965          0.000000
H              0.799571         -0.580965          0.000000
O             -0.009644          6.322794          0.000000
H             -0.413813          7.218424          0.000000
H             -0.725791          5.650009          0.000000

