6

O              0.000000         -0.009833          0.000000
H             -0.799571         -0.580965          0.000000
H              0.799571         -0.580965          0.000000
O              0.000000          2.155793          0.000000
H              0.799571          2.726925          0.000000
H             -0.799571          2.726925          0.000000

