6

O              0.000000         -0.009833          0.000000
H             -0.799571         -0.580965          0.000000
H              0.799571         -0.580965          0.000000
O             -0.009498          1.802811          0.000000
H             -0.354225          2.722958          0.000000
H             -0.768113          1.178304          0.000000

