6

O              0.000000         -0.009833          0.000000
H             -0.799571         -0.580965          0.000000
H              0.799571         -0.580965          0.000000
O             -0.009812          6.667212          0.000000
H             -0.527427          7.502426          0.000000
H             -0.632016          5.906707          0.000000

