6

O              0.000000         -0.009833          0.000000
H             -0.799571         -0.580965          0.000000
H              0.799571         -0.580965          0.000000
O             -0.007801          6.353454          0.000000
H              0.025838          7.335479          0.000000
H             -0.947659          6.066794          0.000000

