6

O              0.000000         -0.009833          0.000000
H             -0.799571         -0.580965          0.000000
H              0.799571         -0.580965          0.000000
O             -0.009498          3.983340          0.000000
H             -0.354225          4.903487          0.000000
H             -0.768113          3.358834          0.000000

