6

O              0.000000         -0.009833          0.000000
H             -0.799571         -0.580965          0.000000
H              0.799571         -0.580965          0.000000
O             -0.007393          2.976790          0.000000
H              0.090401          3.954513          0.000000
H             -0.963987          2.752214          0.000000

