6

O              0.000000         -0.009833          0.000000
H             -0.799571         -0.580965          0.000000
H              0.799571         -0.580965          0.000000
O              0.000000          6.144566          0.000000
H              0.799571          6.715698          0.000000
H             -0.799571          6.715698          0.000000

