6

O              0.000000         -0.009833          0.000000
H             -0.799571         -0.580965          0.000000
H              0.799571         -0.580965          0.000000
O             -0.007801          5.156822          0.000000
H              0.025838          6.138847          0.000000
H             -0.947659          4.870162          0.000000

