6

O              0.000000         -0.009833          0.000000
H             -0.799571         -0.580965          0.000000
H              0.799571         -0.580965          0.000000
O             -0.003161          6.782248          0.000000
H              0.570393          7.580084          0.000000
H             -0.943883          7.066056          0.000000

