6

O              0.000000         -0.009833          0.000000
H             -0.799571         -0.580965          0.000000
H              0.799571         -0.580965          0.000000
O             -0.008516          2.204060          0.000000
H             -0.103345          3.182075          0.000000
H             -0.902916          1.797177          0.000000

