6

O              0.000000         -0.009833          0.000000
H             -0.799571         -0.580965          0.000000
H              0.799571         -0.580965          0.000000
O             -0.004349          2.420697          0.000000
H              0.460159          3.286571          0.000000
H             -0.974068          2.579288          0.000000

