6

O              0.000000         -0.009833          0.000000
H             -0.799571         -0.580965          0.000000
H              0.799571         -0.580965          0.000000
O             -0.009085          4.675946          0.000000
H             -0.230759          5.633216          0.000000
H             -0.842725          4.155801          0.000000

