6

O              0.000000         -0.009833          0.000000
H             -0.799571         -0.580965          0.000000
H              0.799571         -0.580965          0.000000
O             -0.009833          3.954204          0.000000
H             -0.580965          4.753775          0.000000
H             -0.580965          3.154632          0.000000

