6

O              0.000000         -0.009833          0.000000
H             -0.799571         -0.580965          0.000000
H              0.799571         -0.580965          0.000000
O             -0.002545          5.373068          0.000000
H              0.621962          6.131684          0.000000
H             -0.922692          5.717795          0.000000

