6

O              0.000000         -0.009833          0.000000
H             -0.799571         -0.580965          0.000000
H              0.799571         -0.580965          0.000000
O             -0.007801          1.753069          0.000000
H              0.025838          2.735094          0.000000
H             -0.947659          1.466409          0.000000

