6

O              0.000000         -0.009833          0.000000
H             -0.799571         -0.580965          0.000000
H              0.799571         -0.580965          0.000000
O             -0.007393          1.753566          0.000000
H              0.090401          2.731289          0.000000
H             -0.963987          1.528990          0.000000

