6

O              0.000000         -0.009833          0.000000
H             -0.799571         -0.580965          0.000000
H              0.799571         -0.580965          0.000000
O             -0.009311          5.871975          0.000000
H             -0.293120          6.812698          0.000000
H             -0.807147          5.298421          0.000000

