6

O              0.000000         -0.009833          0.000000
H             -0.799571         -0.580965          0.000000
H              0.799571         -0.580965          0.000000
O             -0.009085          2.548600          0.000000
H             -0.230759          3.505871          0.000000
H             -0.842725          2.028455          0.000000

