6

O              0.000000         -0.009833          0.000000
H             -0.799571         -0.580965          0.000000
H              0.799571         -0.580965          0.000000
O             -0.009812          3.954847          0.000000
H             -0.527427          4.790060          0.000000
H             -0.632016          3.194341          0.000000

