6

O              0.000000         -0.009833          0.000000
H             -0.799571         -0.580965          0.000000
H              0.799571         -0.580965          0.000000
O             -0.001283          6.516767          0.000000
H              0.716900          7.187378          0.000000
H             -0.868562          6.978648          0.000000

