6

O              0.000000         -0.009833          0.000000
H             -0.799571         -0.580965          0.000000
H              0.799571         -0.580965          0.000000
O             -0.007393          6.540094          0.000000
H              0.090401          7.517817          0.000000
H             -0.963987          6.315518          0.000000

