6

O              0.000000         -0.009833          0.000000
H             -0.799571         -0.580965          0.000000
H              0.799571         -0.580965          0.000000
O             -0.005463          5.451522          0.000000
H              0.342052          6.370618          0.000000
H             -0.987586          5.482182          0.000000

