6

O              0.000000         -0.009833          0.000000
H             -0.799571         -0.580965          0.000000
H              0.799571         -0.580965          0.000000
O             -0.004917          6.754861          0.000000
H              0.401967          7.649261          0.000000
H             -0.982932          6.849690          0.000000

