6

O              0.000000         -0.009833          0.000000
H             -0.799571         -0.580965          0.000000
H              0.799571         -0.580965          0.000000
O             -0.004917          4.467964          0.000000
H              0.401967          5.362364          0.000000
H             -0.982932          4.562793          0.000000

