6

O              0.000000         -0.009833          0.000000
H             -0.799571         -0.580965          0.000000
H              0.799571         -0.580965          0.000000
O             -0.009644          5.764366          0.000000
H             -0.413813          6.659996          0.000000
H             -0.725791          5.091580          0.000000

