6

O              0.000000         -0.009833          0.000000
H             -0.799571         -0.580965          0.000000
H              0.799571         -0.580965          0.000000
O             -0.007801          2.258313          0.000000
H              0.025838          3.240339          0.000000
H             -0.947659          1.971654          0.000000

