6

O              0.000000         -0.009833          0.000000
H             -0.799571         -0.580965          0.000000
H              0.799571         -0.580965          0.000000
O             -0.003763          1.676392          0.000000
H              0.516382          2.510032          0.000000
H             -0.961033          1.898066          0.000000

