6

O              0.000000         -0.009833          0.000000
H             -0.799571         -0.580965          0.000000
H              0.799571         -0.580965          0.000000
O             -0.003161          4.176250          0.000000
H              0.570393          4.974085          0.000000
H             -0.943883          4.460058          0.000000

