6

O              0.000000         -0.009833          0.000000
H             -0.799571         -0.580965          0.000000
H              0.799571         -0.580965          0.000000
O             -0.002545          2.022499          0.000000
H              0.621962          2.781114          0.000000
H             -0.922692          2.367226          0.000000

