6

O              0.000000         -0.009833          0.000000
H             -0.799571         -0.580965          0.000000
H              0.799571         -0.580965          0.000000
O             -0.009833          4.273305          0.000000
H             -0.580965          5.072877          0.000000
H             -0.580965          3.473734          0.000000

