6

O              0.000000         -0.009833          0.000000
H             -0.799571         -0.580965          0.000000
H              0.799571         -0.580965          0.000000
O             -0.007393          6.034849          0.000000
H              0.090401          7.012572          0.000000
H             -0.963987          5.810273          0.000000

