6

O              0.000000         -0.009833          0.000000
H             -0.799571         -0.580965          0.000000
H              0.799571         -0.580965          0.000000
O             -0.007801          5.369556          0.000000
H              0.025838          6.351582          0.000000
H             -0.947659          5.082897          0.000000

