6

O              0.000000         -0.009833          0.000000
H             -0.799571         -0.580965          0.000000
H              0.799571         -0.580965          0.000000
O             -0.007801          6.247086          0.000000
H              0.025838          7.229112          0.000000
H             -0.947659          5.960427          0.000000

