6

O              0.000000         -0.009833          0.000000
H             -0.799571         -0.580965          0.000000
H              0.799571         -0.580965          0.000000
O             -0.009812          1.800909          0.000000
H             -0.527427          2.636122          0.000000
H             -0.632016          1.040404          0.000000

