6

O              0.000000         -0.009833          0.000000
H             -0.799571         -0.580965          0.000000
H              0.799571         -0.580965          0.000000
O             -0.005986          4.999086          0.000000
H              0.280674          5.938943          0.000000
H             -0.988012          4.965447          0.000000

