6

O              0.000000         -0.009833          0.000000
H             -0.799571         -0.580965          0.000000
H              0.799571         -0.580965          0.000000
O             -0.003763          6.329960          0.000000
H              0.516382          7.163600          0.000000
H             -0.961033          6.551635          0.000000

