6

O              0.000000         -0.009833          0.000000
H             -0.799571         -0.580965          0.000000
H              0.799571         -0.580965          0.000000
O             -0.009085          5.925761          0.000000
H             -0.230759          6.883032          0.000000
H             -0.842725          5.405617          0.000000

