6

O              0.000000         -0.009833          0.000000
H             -0.799571         -0.580965          0.000000
H              0.799571         -0.580965          0.000000
O             -0.009833          4.379672          0.000000
H             -0.580965          5.179244          0.000000
H             -0.580965          3.580101          0.000000

