6

O              0.000000         -0.009833          0.000000
H             -0.799571         -0.580965          0.000000
H              0.799571         -0.580965          0.000000
O             -0.003161          1.729802          0.000000
H              0.570393          2.527638          0.000000
H             -0.943883          2.013610          0.000000

