6

O              0.000000         -0.009833          0.000000
H             -0.799571         -0.580965          0.000000
H              0.799571         -0.580965          0.000000
O             -0.004917          2.340618          0.000000
H              0.401967          3.235019          0.000000
H             -0.982932          2.435448          0.000000

