6

O              0.000000         -0.009833          0.000000
H             -0.799571         -0.580965          0.000000
H              0.799571         -0.580965          0.000000
O             -0.007393          3.455443          0.000000
H              0.090401          4.433166          0.000000
H             -0.963987          3.230866          0.000000

