6

O              0.000000         -0.009833          0.000000
H             -0.799571         -0.580965          0.000000
H              0.799571         -0.580965          0.000000
O             -0.008819          1.618473          0.000000
H             -0.167410          2.588192          0.000000
H             -0.874693          1.153964          0.000000

