6

O              0.000000         -0.009833          0.000000
H             -0.799571         -0.580965          0.000000
H              0.799571         -0.580965          0.000000
O             -0.008819          3.506492          0.000000
H             -0.167410          4.476211          0.000000
H             -0.874693          3.041983          0.000000

