6

O              0.000000         -0.009833          0.000000
H             -0.799571         -0.580965          0.000000
H              0.799571         -0.580965          0.000000
O             -0.008819          5.128593          0.000000
H             -0.167410          6.098312          0.000000
H             -0.874693          4.664084          0.000000

