6

O              0.000000         -0.009833          0.000000
H             -0.799571         -0.580965          0.000000
H              0.799571         -0.580965          0.000000
O             -0.006483          1.993802          0.000000
H              0.218093          2.950396          0.000000
H             -0.984207          1.896008          0.000000

