6

O              0.000000         -0.009833          0.000000
H             -0.799571         -0.580965          0.000000
H              0.799571         -0.580965          0.000000
O             -0.009311          2.255488          0.000000
H             -0.293120          3.196210          0.000000
H             -0.807147          1.681934          0.000000

