6

O              0.000000         -0.009833          0.000000
H             -0.799571         -0.580965          0.000000
H              0.799571         -0.580965          0.000000
O             -0.008516          2.071101          0.000000
H             -0.103345          3.049116          0.000000
H             -0.902916          1.664218          0.000000

