6

O              0.000000         -0.009833          0.000000
H             -0.799571         -0.580965          0.000000
H              0.799571         -0.580965          0.000000
O             -0.009749          1.987692          0.000000
H             -0.471630          2.854971          0.000000
H             -0.680360          1.269509          0.000000

