6

O              0.000000         -0.009833          0.000000
H             -0.799571         -0.580965          0.000000
H              0.799571         -0.580965          0.000000
O             -0.006953          3.881381          0.000000
H              0.154578          4.850615          0.000000
H             -0.976187          3.719850          0.000000

