6

O              0.000000         -0.009833          0.000000
H             -0.799571         -0.580965          0.000000
H              0.799571         -0.580965          0.000000
O             -0.009311          6.324037          0.000000
H             -0.293120          7.264759          0.000000
H             -0.807147          5.750482          0.000000

