6

O              0.000000         -0.009833          0.000000
H             -0.799571         -0.580965          0.000000
H              0.799571         -0.580965          0.000000
O             -0.005463          3.058258          0.000000
H              0.342052          3.977355          0.000000
H             -0.987586          3.088918          0.000000

