6

O              0.000000         -0.009833          0.000000
H             -0.799571         -0.580965          0.000000
H              0.799571         -0.580965          0.000000
O             -0.003763          6.356552          0.000000
H              0.516382          7.190192          0.000000
H             -0.961033          6.578227          0.000000

