6

O              0.000000         -0.009833          0.000000
H             -0.799571         -0.580965          0.000000
H              0.799571         -0.580965          0.000000
O             -0.009812          1.721134          0.000000
H             -0.527427          2.556347          0.000000
H             -0.632016          0.960628          0.000000

