6

O              0.000000         -0.009833          0.000000
H             -0.799571         -0.580965          0.000000
H              0.799571         -0.580965          0.000000
O             -0.009812          6.135376          0.000000
H             -0.527427          6.970589          0.000000
H             -0.632016          5.374870          0.000000

