6

O              0.000000         -0.009833          0.000000
H             -0.799571         -0.580965          0.000000
H              0.799571         -0.580965          0.000000
O             -0.004917          3.324516          0.000000
H              0.401967          4.218916          0.000000
H             -0.982932          3.419345          0.000000

