6

O              0.000000         -0.009833          0.000000
H             -0.799571         -0.580965          0.000000
H              0.799571         -0.580965          0.000000
O             -0.009812          2.066828          0.000000
H             -0.527427          2.902041          0.000000
H             -0.632016          1.306322          0.000000

