6

O              0.000000         -0.009833          0.000000
H             -0.799571         -0.580965          0.000000
H              0.799571         -0.580965          0.000000
O             -0.009812          4.991927          0.000000
H             -0.527427          5.827141          0.000000
H             -0.632016          4.231422          0.000000

