6

O              0.000000         -0.009833          0.000000
H             -0.799571         -0.580965          0.000000
H              0.799571         -0.580965          0.000000
O             -0.006483          4.094556          0.000000
H              0.218093          5.051149          0.000000
H             -0.984207          3.996761          0.000000

