6

O              0.000000         -0.009833          0.000000
H             -0.799571         -0.580965          0.000000
H              0.799571         -0.580965          0.000000
O             -0.009085          4.090926          0.000000
H             -0.230759          5.048196          0.000000
H             -0.842725          3.570781          0.000000

