6

O              0.000000         -0.009833          0.000000
H             -0.799571         -0.580965          0.000000
H              0.799571         -0.580965          0.000000
O             -0.007393          2.471545          0.000000
H              0.090401          3.449268          0.000000
H             -0.963987          2.246969          0.000000

