6

O              0.000000         -0.009833          0.000000
H             -0.799571         -0.580965          0.000000
H              0.799571         -0.580965          0.000000
O             -0.009833          4.113755          0.000000
H             -0.580965          4.913326          0.000000
H             -0.580965          3.314183          0.000000

