6

O              0.000000         -0.009833          0.000000
H             -0.799571         -0.580965          0.000000
H              0.799571         -0.580965          0.000000
O             -0.009833          1.906634          0.000000
H             -0.580965          2.706205          0.000000
H             -0.580965          1.107062          0.000000

