6

O              0.000000         -0.009833          0.000000
H             -0.799571         -0.580965          0.000000
H              0.799571         -0.580965          0.000000
O             -0.007801          4.146332          0.000000
H              0.025838          5.128358          0.000000
H             -0.947659          3.859673          0.000000

