6

O              0.000000         -0.009833          0.000000
H             -0.799571         -0.580965          0.000000
H              0.799571         -0.580965          0.000000
O             -0.008516          1.858366          0.000000
H             -0.103345          2.836381          0.000000
H             -0.902916          1.451483          0.000000

