6

O              0.000000         -0.009833          0.000000
H             -0.799571         -0.580965          0.000000
H              0.799571         -0.580965          0.000000
O              0.000000          5.293628          0.000000
H              0.799571          5.864760          0.000000
H             -0.799571          5.864759          0.000000

