6

O              0.000000         -0.009833          0.000000
H             -0.799571         -0.580965          0.000000
H              0.799571         -0.580965          0.000000
O             -0.000643          4.495852          0.000000
H              0.759863          5.118055          0.000000
H             -0.835856          5.013467          0.000000

