6

O              0.000000         -0.009833          0.000000
H             -0.799571         -0.580965          0.000000
H              0.799571         -0.580965          0.000000
O             -0.005986          4.041780          0.000000
H              0.280674          4.981638          0.000000
H             -0.988012          4.008141          0.000000

