6

O              0.000000         -0.009833          0.000000
H             -0.799571         -0.580965          0.000000
H              0.799571         -0.580965          0.000000
O             -0.003161          6.862023          0.000000
H              0.570393          7.659859          0.000000
H             -0.943883          7.145832          0.000000

