6

O              0.000000         -0.009833          0.000000
H             -0.799571         -0.580965          0.000000
H              0.799571         -0.580965          0.000000
O             -0.008516          5.501445          0.000000
H             -0.103345          6.479461          0.000000
H             -0.902916          5.094562          0.000000

