6

O              0.000000         -0.009833          0.000000
H             -0.799571         -0.580965          0.000000
H              0.799571         -0.580965          0.000000
O             -0.005463          6.674745          0.000000
H              0.342052          7.593842          0.000000
H             -0.987586          6.705406          0.000000

