6

O              0.000000         -0.009833          0.000000
H             -0.799571         -0.580965          0.000000
H              0.799571         -0.580965          0.000000
O             -0.009749          6.215792          0.000000
H             -0.471630          7.083070          0.000000
H             -0.680360          5.497608          0.000000

