6

O              0.000000         -0.009833          0.000000
H             -0.799571         -0.580965          0.000000
H              0.799571         -0.580965          0.000000
O             -0.003161          1.650027          0.000000
H              0.570393          2.447862          0.000000
H             -0.943883          1.933835          0.000000

