6

O              0.000000         -0.009833          0.000000
H             -0.799571         -0.580965          0.000000
H              0.799571         -0.580965          0.000000
O             -0.001918          5.851867          0.000000
H              0.670867          6.568014          0.000000
H             -0.897548          6.256036          0.000000

