6

O              0.000000         -0.009833          0.000000
H             -0.799571         -0.580965          0.000000
H              0.799571         -0.580965          0.000000
O             -0.004349          5.212838          0.000000
H              0.460159          6.078713          0.000000
H             -0.974068          5.371430          0.000000

