6

O              0.000000         -0.009833          0.000000
H             -0.799571         -0.580965          0.000000
H              0.799571         -0.580965          0.000000
O             -0.005463          1.728667          0.000000
H              0.342052          2.647764          0.000000
H             -0.987586          1.759327          0.000000

