6

O              0.000000         -0.009833          0.000000
H             -0.799571         -0.580965          0.000000
H              0.799571         -0.580965          0.000000
O             -0.009311          6.456995          0.000000
H             -0.293120          7.397718          0.000000
H             -0.807147          5.883441          0.000000

