6

O              0.000000         -0.009833          0.000000
H             -0.799571         -0.580965          0.000000
H              0.799571         -0.580965          0.000000
O             -0.009749          2.094060          0.000000
H             -0.471630          2.961338          0.000000
H             -0.680360          1.375877          0.000000

