6

O              0.000000         -0.009833          0.000000
H             -0.799571         -0.580965          0.000000
H              0.799571         -0.580965          0.000000
O             -0.003763          5.159920          0.000000
H              0.516382          5.993560          0.000000
H             -0.961033          5.381595          0.000000

