6

O              0.000000         -0.009833          0.000000
H             -0.799571         -0.580965          0.000000
H              0.799571         -0.580965          0.000000
O             -0.004349          1.942044          0.000000
H              0.460159          2.807919          0.000000
H             -0.974068          2.100636          0.000000

