6

O              0.000000         -0.009833          0.000000
H             -0.799571         -0.580965          0.000000
H              0.799571         -0.580965          0.000000
O             -0.001283          5.532870          0.000000
H              0.716900          6.203481          0.000000
H             -0.868562          5.994751          0.000000

