6

O              0.000000         -0.009833          0.000000
H             -0.799571         -0.580965          0.000000
H              0.799571         -0.580965          0.000000
O             -0.008516          6.246017          0.000000
H             -0.103345          7.224032          0.000000
H             -0.902916          5.839134          0.000000

