6

O              0.000000         -0.009833          0.000000
H             -0.799571         -0.580965          0.000000
H              0.799571         -0.580965          0.000000
O             -0.005463          5.159011          0.000000
H              0.342052          6.078108          0.000000
H             -0.987586          5.189672          0.000000

