6

O              0.000000         -0.009833          0.000000
H             -0.799571         -0.580965          0.000000
H              0.799571         -0.580965          0.000000
O             -0.009085          3.293171          0.000000
H             -0.230759          4.250441          0.000000
H             -0.842725          2.773026          0.000000

