6

O              0.000000         -0.009833          0.000000
H             -0.799571         -0.580965          0.000000
H              0.799571         -0.580965          0.000000
O             -0.007393          6.779420          0.000000
H              0.090401          7.757143          0.000000
H             -0.963987          6.554844          0.000000

