6

O              0.000000         -0.009833          0.000000
H             -0.799571         -0.580965          0.000000
H              0.799571         -0.580965          0.000000
O             -0.008176          6.539073          0.000000
H             -0.038837          7.521197          0.000000
H             -0.927273          6.191558          0.000000

