6

O              0.000000         -0.009833          0.000000
H             -0.799571         -0.580965          0.000000
H              0.799571         -0.580965          0.000000
O             -0.000643          6.676381          0.000000
H              0.759863          7.298585          0.000000
H             -0.835856          7.193996          0.000000

