6

O              0.000000         -0.009833          0.000000
H             -0.799571         -0.580965          0.000000
H              0.799571         -0.580965          0.000000
O             -0.002545          6.410149          0.000000
H              0.621962          7.168764          0.000000
H             -0.922692          6.754876          0.000000

