6

O              0.000000         -0.009833          0.000000
H             -0.799571         -0.580965          0.000000
H              0.799571         -0.580965          0.000000
O             -0.009644          3.264735          0.000000
H             -0.413813          4.160365          0.000000
H             -0.725791          2.591949          0.000000

