6

O              0.000000         -0.009833          0.000000
H             -0.799571         -0.580965          0.000000
H              0.799571         -0.580965          0.000000
O             -0.000643          4.947913          0.000000
H              0.759863          5.570117          0.000000
H             -0.835856          5.465528          0.000000

