6

O              0.000000         -0.009833          0.000000
H             -0.799571         -0.580965          0.000000
H              0.799571         -0.580965          0.000000
O             -0.007393          3.003382          0.000000
H              0.090401          3.981105          0.000000
H             -0.963987          2.778805          0.000000

