6

O              0.000000         -0.009833          0.000000
H             -0.799571         -0.580965          0.000000
H              0.799571         -0.580965          0.000000
O             -0.009644          2.812674          0.000000
H             -0.413813          3.708304          0.000000
H             -0.725791          2.139888          0.000000

