6

O              0.000000         -0.009833          0.000000
H             -0.799571         -0.580965          0.000000
H              0.799571         -0.580965          0.000000
O             -0.008176          5.236074          0.000000
H             -0.038837          6.218197          0.000000
H             -0.927273          4.888559          0.000000

