6

O              0.000000         -0.009833          0.000000
H             -0.799571         -0.580965          0.000000
H              0.799571         -0.580965          0.000000
O             -0.007393          6.885787          0.000000
H              0.090401          7.863510          0.000000
H             -0.963987          6.661211          0.000000

