6

O              0.000000         -0.009833          0.000000
H             -0.799571         -0.580965          0.000000
H              0.799571         -0.580965          0.000000
O             -0.009833          3.236224          0.000000
H             -0.580965          4.035796          0.000000
H             -0.580965          2.436653          0.000000

