6

O              0.000000         -0.009833          0.000000
H             -0.799571         -0.580965          0.000000
H              0.799571         -0.580965          0.000000
O             -0.001918          2.448114          0.000000
H              0.670867          3.164261          0.000000
H             -0.897548          2.852283          0.000000

