6

O              0.000000         -0.009833          0.000000
H             -0.799571         -0.580965          0.000000
H              0.799571         -0.580965          0.000000
O             -0.005986          3.536536          0.000000
H              0.280674          4.476393          0.000000
H             -0.988012          3.502897          0.000000

