6

O              0.000000         -0.009833          0.000000
H             -0.799571         -0.580965          0.000000
H              0.799571         -0.580965          0.000000
O             -0.002545          6.303782          0.000000
H              0.621962          7.062397          0.000000
H             -0.922692          6.648508          0.000000

