6

O              0.000000         -0.009833          0.000000
H             -0.799571         -0.580965          0.000000
H              0.799571         -0.580965          0.000000
O             -0.009812          4.140989          0.000000
H             -0.527427          4.976203          0.000000
H             -0.632016          3.380484          0.000000

