6

O              0.000000         -0.009833          0.000000
H             -0.799571         -0.580965          0.000000
H              0.799571         -0.580965          0.000000
O             -0.009644          2.945633          0.000000
H             -0.413813          3.841263          0.000000
H             -0.725791          2.272847          0.000000

