6

O              0.000000         -0.009833          0.000000
H             -0.799571         -0.580965          0.000000
H              0.799571         -0.580965          0.000000
O             -0.009833          4.964693          0.000000
H             -0.580965          5.764264          0.000000
H             -0.580965          4.165121          0.000000

