6

O              0.000000         -0.009833          0.000000
H             -0.799571         -0.580965          0.000000
H              0.799571         -0.580965          0.000000
O             -0.003763          2.022085          0.000000
H              0.516382          2.855725          0.000000
H             -0.961033          2.243760          0.000000

