6

O              0.000000         -0.009833          0.000000
H             -0.799571         -0.580965          0.000000
H              0.799571         -0.580965          0.000000
O             -0.009833          2.332103          0.000000
H             -0.580965          3.131674          0.000000
H             -0.580965          1.532531          0.000000

