6

O              0.000000         -0.009833          0.000000
H             -0.799571         -0.580965          0.000000
H              0.799571         -0.580965          0.000000
O             -0.001283          6.490175          0.000000
H              0.716900          7.160786          0.000000
H             -0.868562          6.952056          0.000000

