6

O              0.000000         -0.009833          0.000000
H             -0.799571         -0.580965          0.000000
H              0.799571         -0.580965          0.000000
O             -0.005463          4.866501          0.000000
H              0.342052          5.785598          0.000000
H             -0.987586          4.897162          0.000000

