6

O              0.000000         -0.009833          0.000000
H             -0.799571         -0.580965          0.000000
H              0.799571         -0.580965          0.000000
O             -0.006953          2.073138          0.000000
H              0.154578          3.042371          0.000000
H             -0.976187          1.911607          0.000000

