6

O              0.000000         -0.009833          0.000000
H             -0.799571         -0.580965          0.000000
H              0.799571         -0.580965          0.000000
O             -0.009085          4.436619          0.000000
H             -0.230759          5.393890          0.000000
H             -0.842725          3.916475          0.000000

