6

O              0.000000         -0.009833          0.000000
H             -0.799571         -0.580965          0.000000
H              0.799571         -0.580965          0.000000
O             -0.001283          3.192790          0.000000
H              0.716900          3.863401          0.000000
H             -0.868562          3.654671          0.000000

