6

O              0.000000         -0.009833          0.000000
H             -0.799571         -0.580965          0.000000
H              0.799571         -0.580965          0.000000
O             -0.009311          4.781711          0.000000
H             -0.293120          5.722433          0.000000
H             -0.807147          4.208157          0.000000

