6

O              0.000000         -0.009833          0.000000
H             -0.799571         -0.580965          0.000000
H              0.799571         -0.580965          0.000000
O             -0.009644          6.083467          0.000000
H             -0.413813          6.979098          0.000000
H             -0.725791          5.410682          0.000000

