6

O              0.000000         -0.009833          0.000000
H             -0.799571         -0.580965          0.000000
H              0.799571         -0.580965          0.000000
O             -0.009085          5.287557          0.000000
H             -0.230759          6.244828          0.000000
H             -0.842725          4.767413          0.000000

