6

O              0.000000         -0.009833          0.000000
H             -0.799571         -0.580965          0.000000
H              0.799571         -0.580965          0.000000
O             -0.002545          5.771945          0.000000
H              0.621962          6.530561          0.000000
H             -0.922692          6.116672          0.000000

