6

O              0.000000         -0.009833          0.000000
H             -0.799571         -0.580965          0.000000
H              0.799571         -0.580965          0.000000
O             -0.001283          4.203279          0.000000
H              0.716900          4.873890          0.000000
H             -0.868562          4.665160          0.000000

