6

O              0.000000         -0.009833          0.000000
H             -0.799571         -0.580965          0.000000
H              0.799571         -0.580965          0.000000
O             -0.000643          1.836670          0.000000
H              0.759863          2.458874          0.000000
H             -0.835856          2.354285          0.000000

