6

O              0.000000         -0.009833          0.000000
H             -0.799571         -0.580965          0.000000
H              0.799571         -0.580965          0.000000
O             -0.005986          3.509944          0.000000
H              0.280674          4.449802          0.000000
H             -0.988012          3.476305          0.000000

