6

O              0.000000         -0.009833          0.000000
H             -0.799571         -0.580965          0.000000
H              0.799571         -0.580965          0.000000
O             -0.001918          3.591562          0.000000
H              0.670867          4.307709          0.000000
H             -0.897548          3.995732          0.000000

