6

O              0.000000         -0.009833          0.000000
H             -0.799571         -0.580965          0.000000
H              0.799571         -0.580965          0.000000
O             -0.001918          5.213664          0.000000
H              0.670867          5.929810          0.000000
H             -0.897548          5.617833          0.000000

