6

O              0.000000         -0.009833          0.000000
H             -0.799571         -0.580965          0.000000
H              0.799571         -0.580965          0.000000
O             -0.005986          4.600209          0.000000
H              0.280674          5.540066          0.000000
H             -0.988012          4.566570          0.000000

