6

O              0.000000         -0.009833          0.000000
H             -0.799571         -0.580965          0.000000
H              0.799571         -0.580965          0.000000
O             -0.001918          6.011418          0.000000
H              0.670867          6.727564          0.000000
H             -0.897548          6.415587          0.000000

