6

O              0.000000         -0.009833          0.000000
H             -0.799571         -0.580965          0.000000
H              0.799571         -0.580965          0.000000
O             -0.009311          4.116915          0.000000
H             -0.293120          5.057638          0.000000
H             -0.807147          3.543361          0.000000

