6

O              0.000000         -0.009833          0.000000
H             -0.799571         -0.580965          0.000000
H              0.799571         -0.580965          0.000000
O             -0.005463          4.361257          0.000000
H              0.342052          5.280354          0.000000
H             -0.987586          4.391917          0.000000

