6

O              0.000000         -0.009833          0.000000
H             -0.799571         -0.580965          0.000000
H              0.799571         -0.580965          0.000000
O             -0.002545          1.597030          0.000000
H              0.621962          2.355645          0.000000
H             -0.922692          1.941757          0.000000

