6

O              0.000000         -0.009833          0.000000
H             -0.799571         -0.580965          0.000000
H              0.799571         -0.580965          0.000000
O             -0.009749          1.668591          0.000000
H             -0.471630          2.535869          0.000000
H             -0.680360          0.950407          0.000000

