6

O              0.000000         -0.009833          0.000000
H             -0.799571         -0.580965          0.000000
H              0.799571         -0.580965          0.000000
O             -0.009085          4.356844          0.000000
H             -0.230759          5.314114          0.000000
H             -0.842725          3.836699          0.000000

