6

O              0.000000         -0.009833          0.000000
H             -0.799571         -0.580965          0.000000
H              0.799571         -0.580965          0.000000
O             -0.001283          2.129117          0.000000
H              0.716900          2.799728          0.000000
H             -0.868562          2.590998          0.000000

