6

O              0.000000         -0.009833          0.000000
H             -0.799571         -0.580965          0.000000
H              0.799571         -0.580965          0.000000
O             -0.002545          4.229620          0.000000
H              0.621962          4.988235          0.000000
H             -0.922692          4.574347          0.000000

