6

O              0.000000         -0.009833          0.000000
H             -0.799571         -0.580965          0.000000
H              0.799571         -0.580965          0.000000
O             -0.004917          2.792679          0.000000
H              0.401967          3.687080          0.000000
H             -0.982932          2.887509          0.000000

