6

O              0.000000         -0.009833          0.000000
H             -0.799571         -0.580965          0.000000
H              0.799571         -0.580965          0.000000
O             -0.001283          5.851972          0.000000
H              0.716900          6.522583          0.000000
H             -0.868562          6.313853          0.000000

