6

O              0.000000         -0.009833          0.000000
H             -0.799571         -0.580965          0.000000
H              0.799571         -0.580965          0.000000
O             -0.009833          6.081549          0.000000
H             -0.580965          6.881120          0.000000
H             -0.580965          5.281978          0.000000

