6

O              0.000000         -0.009833          0.000000
H             -0.799571         -0.580965          0.000000
H              0.799571         -0.580965          0.000000
O             -0.003161          5.505840          0.000000
H              0.570393          6.303676          0.000000
H             -0.943883          5.789649          0.000000

