6

O              0.000000         -0.009833          0.000000
H             -0.799571         -0.580965          0.000000
H              0.799571         -0.580965          0.000000
O             -0.003763          6.090634          0.000000
H              0.516382          6.924274          0.000000
H             -0.961033          6.312308          0.000000

