6

O              0.000000         -0.009833          0.000000
H             -0.799571         -0.580965          0.000000
H              0.799571         -0.580965          0.000000
O             -0.005986          2.712189          0.000000
H              0.280674          3.652047          0.000000
H             -0.988012          2.678551          0.000000

