6

O              0.000000         -0.009833          0.000000
H             -0.799571         -0.580965          0.000000
H              0.799571         -0.580965          0.000000
O             -0.008516          5.847139          0.000000
H             -0.103345          6.825155          0.000000
H             -0.902916          5.440256          0.000000

