6

O              0.000000         -0.009833          0.000000
H             -0.799571         -0.580965          0.000000
H              0.799571         -0.580965          0.000000
O             -0.001283          2.660953          0.000000
H              0.716900          3.331564          0.000000
H             -0.868562          3.122834          0.000000

