6

O              0.000000         -0.009833          0.000000
H             -0.799571         -0.580965          0.000000
H              0.799571         -0.580965          0.000000
O             -0.003763          3.138942          0.000000
H              0.516382          3.972582          0.000000
H             -0.961033          3.360616          0.000000

