6

O              0.000000         -0.009833          0.000000
H             -0.799571         -0.580965          0.000000
H              0.799571         -0.580965          0.000000
O             -0.006953          5.902359          0.000000
H              0.154578          6.871593          0.000000
H             -0.976187          5.740828          0.000000

