6

O              0.000000         -0.009833          0.000000
H             -0.799571         -0.580965          0.000000
H              0.799571         -0.580965          0.000000
O              0.000000          2.767405          0.000000
H              0.799571          3.338537          0.000000
H             -0.799571          3.338537          0.000000

