6

O              0.000000         -0.009833          0.000000
H             -0.799571         -0.580965          0.000000
H              0.799571         -0.580965          0.000000
O             -0.008819          6.537959          0.000000
H             -0.167410          7.507678          0.000000
H             -0.874693          6.073451          0.000000

