6

O              0.000000         -0.009833          0.000000
H             -0.799571         -0.580965          0.000000
H              0.799571         -0.580965          0.000000
O             -0.009085          1.910397          0.000000
H             -0.230759          2.867667          0.000000
H             -0.842725          1.390252          0.000000

