6

O              0.000000         -0.009833          0.000000
H             -0.799571         -0.580965          0.000000
H              0.799571         -0.580965          0.000000
O             -0.009644          4.062489          0.000000
H             -0.413813          4.958120          0.000000
H             -0.725791          3.389704          0.000000

