6

O              0.000000         -0.009833          0.000000
H             -0.799571         -0.580965          0.000000
H              0.799571         -0.580965          0.000000
O              0.000000          5.027710          0.000000
H              0.799571          5.598842          0.000000
H             -0.799571          5.598842          0.000000

