6

O              0.000000         -0.009833          0.000000
H             -0.799571         -0.580965          0.000000
H              0.799571         -0.580965          0.000000
O             -0.001283          5.612645          0.000000
H              0.716900          6.283256          0.000000
H             -0.868562          6.074526          0.000000

