6

O              0.000000         -0.009833          0.000000
H             -0.799571         -0.580965          0.000000
H              0.799571         -0.580965          0.000000
O             -0.007393          6.619869          0.000000
H              0.090401          7.597592          0.000000
H             -0.963987          6.395293          0.000000

