6

O              0.000000         -0.009833          0.000000
H             -0.799571         -0.580965          0.000000
H              0.799571         -0.580965          0.000000
O             -0.001283          3.777810          0.000000
H              0.716900          4.448421          0.000000
H             -0.868562          4.239691          0.000000

