6

O              0.000000         -0.009833          0.000000
H             -0.799571         -0.580965          0.000000
H              0.799571         -0.580965          0.000000
O             -0.009833          3.528734          0.000000
H             -0.580965          4.328306          0.000000
H             -0.580965          2.729163          0.000000

