6

O              0.000000         -0.009833          0.000000
H             -0.799571         -0.580965          0.000000
H              0.799571         -0.580965          0.000000
O             -0.009749          2.227019          0.000000
H             -0.471630          3.094298          0.000000
H             -0.680360          1.508836          0.000000

