6

O              0.000000         -0.009833          0.000000
H             -0.799571         -0.580965          0.000000
H              0.799571         -0.580965          0.000000
O             -0.008176          5.103115          0.000000
H             -0.038837          6.085238          0.000000
H             -0.927273          4.755599          0.000000

