6

O              0.000000         -0.009833          0.000000
H             -0.799571         -0.580965          0.000000
H              0.799571         -0.580965          0.000000
O             -0.009833          3.901020          0.000000
H             -0.580965          4.700591          0.000000
H             -0.580965          3.101448          0.000000

