6

O              0.000000         -0.009833          0.000000
H             -0.799571         -0.580965          0.000000
H              0.799571         -0.580965          0.000000
O             -0.007801          2.869925          0.000000
H              0.025838          3.851951          0.000000
H             -0.947659          2.583266          0.000000

