6

O              0.000000         -0.009833          0.000000
H             -0.799571         -0.580965          0.000000
H              0.799571         -0.580965          0.000000
O             -0.009085          3.053845          0.000000
H             -0.230759          4.011115          0.000000
H             -0.842725          2.533700          0.000000

