6

O              0.000000         -0.009833          0.000000
H             -0.799571         -0.580965          0.000000
H              0.799571         -0.580965          0.000000
O             -0.003763          2.261412          0.000000
H              0.516382          3.095052          0.000000
H             -0.961033          2.483086          0.000000

