6

O              0.000000         -0.009833          0.000000
H             -0.799571         -0.580965          0.000000
H              0.799571         -0.580965          0.000000
O              0.000000          3.006731          0.000000
H              0.799571          3.577863          0.000000
H             -0.799571          3.577863          0.000000

