6

O              0.000000         -0.009833          0.000000
H             -0.799571         -0.580965          0.000000
H              0.799571         -0.580965          0.000000
O             -0.005986          2.286720          0.000000
H              0.280674          3.226578          0.000000
H             -0.988012          2.253081          0.000000

