6

O              0.000000         -0.009833          0.000000
H             -0.799571         -0.580965          0.000000
H              0.799571         -0.580965          0.000000
O             -0.009833          4.831734          0.000000
H             -0.580965          5.631305          0.000000
H             -0.580965          4.032162          0.000000

