6

O              0.000000         -0.009833          0.000000
H             -0.799571         -0.580965          0.000000
H              0.799571         -0.580965          0.000000
O             -0.004349          6.143552          0.000000
H              0.460159          7.009426          0.000000
H             -0.974068          6.302143          0.000000

