6

O              0.000000         -0.009833          0.000000
H             -0.799571         -0.580965          0.000000
H              0.799571         -0.580965          0.000000
O              0.000000          4.203363          0.000000
H              0.799571          4.774495          0.000000
H             -0.799571          4.774495          0.000000

