6

O              0.000000         -0.009833          0.000000
H             -0.799571         -0.580965          0.000000
H              0.799571         -0.580965          0.000000
O             -0.005986          6.541411          0.000000
H              0.280674          7.481269          0.000000
H             -0.988012          6.507773          0.000000

