6

O              0.000000         -0.009833          0.000000
H             -0.799571         -0.580965          0.000000
H              0.799571         -0.580965          0.000000
O             -0.004917          3.749985          0.000000
H              0.401967          4.644385          0.000000
H             -0.982932          3.844814          0.000000

