6

O              0.000000         -0.009833          0.000000
H             -0.799571         -0.580965          0.000000
H              0.799571         -0.580965          0.000000
O             -0.002545          2.394784          0.000000
H              0.621962          3.153400          0.000000
H             -0.922692          2.739511          0.000000

