6

O              0.000000         -0.009833          0.000000
H             -0.799571         -0.580965          0.000000
H              0.799571         -0.580965          0.000000
O             -0.009812          6.348111          0.000000
H             -0.527427          7.183324          0.000000
H             -0.632016          5.587605          0.000000

