6

O              0.000000         -0.009833          0.000000
H             -0.799571         -0.580965          0.000000
H              0.799571         -0.580965          0.000000
O             -0.009498          5.020422          0.000000
H             -0.354225          5.940568          0.000000
H             -0.768113          4.395915          0.000000

