6

O              0.000000         -0.009833          0.000000
H             -0.799571         -0.580965          0.000000
H              0.799571         -0.580965          0.000000
O             -0.009833          1.959817          0.000000
H             -0.580965          2.759389          0.000000
H             -0.580965          1.160246          0.000000

