6

O              0.000000         -0.009833          0.000000
H             -0.799571         -0.580965          0.000000
H              0.799571         -0.580965          0.000000
O             -0.009833          2.199143          0.000000
H             -0.580965          2.998715          0.000000
H             -0.580965          1.399572          0.000000

