6

O              0.000000         -0.009833          0.000000
H             -0.799571         -0.580965          0.000000
H              0.799571         -0.580965          0.000000
O             -0.001918          1.916278          0.000000
H              0.670867          2.632424          0.000000
H             -0.897548          2.320447          0.000000

