6

O              0.000000         -0.009833          0.000000
H             -0.799571         -0.580965          0.000000
H              0.799571         -0.580965          0.000000
O             -0.009833          4.299897          0.000000
H             -0.580965          5.099469          0.000000
H             -0.580965          3.500326          0.000000

