6

O              0.000000         -0.009833          0.000000
H             -0.799571         -0.580965          0.000000
H              0.799571         -0.580965          0.000000
O             -0.000643          1.756895          0.000000
H              0.759863          2.379098          0.000000
H             -0.835856          2.274509          0.000000

