6

O              0.000000         -0.009833          0.000000
H             -0.799571         -0.580965          0.000000
H              0.799571         -0.580965          0.000000
O             -0.003763          3.830329          0.000000
H              0.516382          4.663969          0.000000
H             -0.961033          4.052004          0.000000

