6

O              0.000000         -0.009833          0.000000
H             -0.799571         -0.580965          0.000000
H              0.799571         -0.580965          0.000000
O             -0.004917          5.638004          0.000000
H              0.401967          6.532405          0.000000
H             -0.982932          5.732833          0.000000

