6

O              0.000000         -0.009833          0.000000
H             -0.799571         -0.580965          0.000000
H              0.799571         -0.580965          0.000000
O             -0.009749          4.753242          0.000000
H             -0.471630          5.620520          0.000000
H             -0.680360          4.035058          0.000000

