6

O              0.000000         -0.009833          0.000000
H             -0.799571         -0.580965          0.000000
H              0.799571         -0.580965          0.000000
O             -0.009833          6.214508          0.000000
H             -0.580965          7.014079          0.000000
H             -0.580965          5.414937          0.000000

