6

O              0.000000         -0.009833          0.000000
H             -0.799571         -0.580965          0.000000
H              0.799571         -0.580965          0.000000
O             -0.003161          1.889353          0.000000
H              0.570393          2.687189          0.000000
H             -0.943883          2.173161          0.000000

