6

O              0.000000         -0.009833          0.000000
H             -0.799571         -0.580965          0.000000
H              0.799571         -0.580965          0.000000
O             -0.006483          5.477330          0.000000
H              0.218093          6.433924          0.000000
H             -0.984207          5.379536          0.000000

