6

O              0.000000         -0.009833          0.000000
H             -0.799571         -0.580965          0.000000
H              0.799571         -0.580965          0.000000
O             -0.008176          6.166788          0.000000
H             -0.038837          7.148911          0.000000
H             -0.927273          5.819272          0.000000

