6

O              0.000000         -0.009833          0.000000
H             -0.799571         -0.580965          0.000000
H              0.799571         -0.580965          0.000000
O             -0.004349          4.574634          0.000000
H              0.460159          5.440509          0.000000
H             -0.974068          4.733226          0.000000

