6

O              0.000000         -0.009833          0.000000
H             -0.799571         -0.580965          0.000000
H              0.799571         -0.580965          0.000000
O             -0.009311          5.712425          0.000000
H             -0.293120          6.653147          0.000000
H             -0.807147          5.138871          0.000000

