6

O              0.000000         -0.009833          0.000000
H             -0.799571         -0.580965          0.000000
H              0.799571         -0.580965          0.000000
O             -0.003161          5.186738          0.000000
H              0.570393          5.984574          0.000000
H             -0.943883          5.470547          0.000000

