6

O              0.000000         -0.009833          0.000000
H             -0.799571         -0.580965          0.000000
H              0.799571         -0.580965          0.000000
O             -0.001918          4.947745          0.000000
H              0.670867          5.663892          0.000000
H             -0.897548          5.351914          0.000000

