6

O              0.000000         -0.009833          0.000000
H             -0.799571         -0.580965          0.000000
H              0.799571         -0.580965          0.000000
O             -0.000643          4.336301          0.000000
H              0.759863          4.958505          0.000000
H             -0.835856          4.853916          0.000000

