6

O              0.000000         -0.009833          0.000000
H             -0.799571         -0.580965          0.000000
H              0.799571         -0.580965          0.000000
O             -0.009644          2.121286          0.000000
H             -0.413813          3.016916          0.000000
H             -0.725791          1.448501          0.000000

