6

O              0.000000         -0.009833          0.000000
H             -0.799571         -0.580965          0.000000
H              0.799571         -0.580965          0.000000
O             -0.002545          1.942723          0.000000
H              0.621962          2.701339          0.000000
H             -0.922692          2.287450          0.000000

