6

O              0.000000         -0.009833          0.000000
H             -0.799571         -0.580965          0.000000
H              0.799571         -0.580965          0.000000
O             -0.001283          1.783423          0.000000
H              0.716900          2.454034          0.000000
H             -0.868562          2.245304          0.000000

