6

O              0.000000         -0.009833          0.000000
H             -0.799571         -0.580965          0.000000
H              0.799571         -0.580965          0.000000
O             -0.009812          6.294927          0.000000
H             -0.527427          7.130140          0.000000
H             -0.632016          5.534421          0.000000

