6

O              0.000000         -0.009833          0.000000
H             -0.799571         -0.580965          0.000000
H              0.799571         -0.580965          0.000000
O             -0.006953          6.673522          0.000000
H              0.154578          7.642756          0.000000
H             -0.976187          6.511991          0.000000

