6

O              0.000000         -0.009833          0.000000
H             -0.799571         -0.580965          0.000000
H              0.799571         -0.580965          0.000000
O             -0.002545          5.107150          0.000000
H              0.621962          5.865765          0.000000
H             -0.922692          5.451876          0.000000

