6

O              0.000000         -0.009833          0.000000
H             -0.799571         -0.580965          0.000000
H              0.799571         -0.580965          0.000000
O             -0.008176          6.751808          0.000000
H             -0.038837          7.733931          0.000000
H             -0.927273          6.404293          0.000000

