6

O              0.000000         -0.009833          0.000000
H             -0.799571         -0.580965          0.000000
H              0.799571         -0.580965          0.000000
O             -0.008516          5.421670          0.000000
H             -0.103345          6.399686          0.000000
H             -0.902916          5.014787          0.000000

