6

O              0.000000         -0.009833          0.000000
H             -0.799571         -0.580965          0.000000
H              0.799571         -0.580965          0.000000
O             -0.001918          4.469092          0.000000
H              0.670867          5.185239          0.000000
H             -0.897548          4.873262          0.000000

