6

O              0.000000         -0.009833          0.000000
H             -0.799571         -0.580965          0.000000
H              0.799571         -0.580965          0.000000
O             -0.009311          5.393322          0.000000
H             -0.293120          6.334045          0.000000
H             -0.807147          4.819768          0.000000

