6

O              0.000000         -0.009833          0.000000
H             -0.799571         -0.580965          0.000000
H              0.799571         -0.580965          0.000000
O             -0.008176          1.885505          0.000000
H             -0.038837          2.867628          0.000000
H             -0.927273          1.537989          0.000000

