6

O              0.000000         -0.009833          0.000000
H             -0.799571         -0.580965          0.000000
H              0.799571         -0.580965          0.000000
O             -0.003763          6.595878          0.000000
H              0.516382          7.429518          0.000000
H             -0.961033          6.817553          0.000000

