6

O              0.000000         -0.009833          0.000000
H             -0.799571         -0.580965          0.000000
H              0.799571         -0.580965          0.000000
O             -0.009749          6.614669          0.000000
H             -0.471630          7.481948          0.000000
H             -0.680360          5.896486          0.000000

