6

O              0.000000         -0.009833          0.000000
H             -0.799571         -0.580965          0.000000
H              0.799571         -0.580965          0.000000
O             -0.009311          1.670468          0.000000
H             -0.293120          2.611190          0.000000
H             -0.807147          1.096914          0.000000

