6

O              0.000000         -0.009833          0.000000
H             -0.799571         -0.580965          0.000000
H              0.799571         -0.580965          0.000000
O             -0.007393          4.678666          0.000000
H              0.090401          5.656389          0.000000
H             -0.963987          4.454090          0.000000

