6

O              0.000000         -0.009833          0.000000
H             -0.799571         -0.580965          0.000000
H              0.799571         -0.580965          0.000000
O             -0.002545          6.702659          0.000000
H              0.621962          7.461274          0.000000
H             -0.922692          7.047386          0.000000

