6

O              0.000000         -0.009833          0.000000
H             -0.799571         -0.580965          0.000000
H              0.799571         -0.580965          0.000000
O             -0.009812          5.443989          0.000000
H             -0.527427          6.279202          0.000000
H             -0.632016          4.683483          0.000000

