6

O              0.000000         -0.009833          0.000000
H             -0.799571         -0.580965          0.000000
H              0.799571         -0.580965          0.000000
O             -0.007393          5.635972          0.000000
H              0.090401          6.613695          0.000000
H             -0.963987          5.411396          0.000000

