6

O              0.000000         -0.009833          0.000000
H             -0.799571         -0.580965          0.000000
H              0.799571         -0.580965          0.000000
O             -0.005463          5.371746          0.000000
H              0.342052          6.290843          0.000000
H             -0.987586          5.402407          0.000000

