6

O              0.000000         -0.009833          0.000000
H             -0.799571         -0.580965          0.000000
H              0.799571         -0.580965          0.000000
O             -0.008819          2.788513          0.000000
H             -0.167410          3.758232          0.000000
H             -0.874693          2.324004          0.000000

