6

O              0.000000         -0.009833          0.000000
H             -0.799571         -0.580965          0.000000
H              0.799571         -0.580965          0.000000
O             -0.008516          6.086466          0.000000
H             -0.103345          7.064481          0.000000
H             -0.902916          5.679582          0.000000

