6

O              0.000000         -0.009833          0.000000
H             -0.799571         -0.580965          0.000000
H              0.799571         -0.580965          0.000000
O             -0.000643          3.937424          0.000000
H              0.759863          4.559627          0.000000
H             -0.835856          4.455039          0.000000

