6

O              0.000000         -0.009833          0.000000
H             -0.799571         -0.580965          0.000000
H              0.799571         -0.580965          0.000000
O             -0.006953          6.088502          0.000000
H              0.154578          7.057736          0.000000
H             -0.976187          5.926971          0.000000

