6

O              0.000000         -0.009833          0.000000
H             -0.799571         -0.580965          0.000000
H              0.799571         -0.580965          0.000000
O             -0.001918          4.814786          0.000000
H              0.670867          5.530933          0.000000
H             -0.897548          5.218955          0.000000

