6

O              0.000000         -0.009833          0.000000
H             -0.799571         -0.580965          0.000000
H              0.799571         -0.580965          0.000000
O             -0.006953          3.668647          0.000000
H              0.154578          4.637880          0.000000
H             -0.976187          3.507116          0.000000

