6

O              0.000000         -0.009833          0.000000
H             -0.799571         -0.580965          0.000000
H              0.799571         -0.580965          0.000000
O             -0.005463          2.499830          0.000000
H              0.342052          3.418927          0.000000
H             -0.987586          2.530490          0.000000

