6

O              0.000000         -0.009833          0.000000
H             -0.799571         -0.580965          0.000000
H              0.799571         -0.580965          0.000000
O             -0.007801          3.375170          0.000000
H              0.025838          4.357195          0.000000
H             -0.947659          3.088510          0.000000

