6

O              0.000000         -0.009833          0.000000
H             -0.799571         -0.580965          0.000000
H              0.799571         -0.580965          0.000000
O             -0.003763          6.117225          0.000000
H              0.516382          6.950865          0.000000
H             -0.961033          6.338900          0.000000

