6

O              0.000000         -0.009833          0.000000
H             -0.799571         -0.580965          0.000000
H              0.799571         -0.580965          0.000000
O             -0.001918          5.825275          0.000000
H              0.670867          6.541422          0.000000
H             -0.897548          6.229445          0.000000

