6

O              0.000000         -0.009833          0.000000
H             -0.799571         -0.580965          0.000000
H              0.799571         -0.580965          0.000000
O             -0.003763          3.404860          0.000000
H              0.516382          4.238500          0.000000
H             -0.961033          3.626535          0.000000

