6

O              0.000000         -0.009833          0.000000
H             -0.799571         -0.580965          0.000000
H              0.799571         -0.580965          0.000000
O             -0.009644          5.392080          0.000000
H             -0.413813          6.287710          0.000000
H             -0.725791          4.719295          0.000000

