6

O              0.000000         -0.009833          0.000000
H             -0.799571         -0.580965          0.000000
H              0.799571         -0.580965          0.000000
O             -0.009644          3.769979          0.000000
H             -0.413813          4.665609          0.000000
H             -0.725791          3.097194          0.000000

