6

O              0.000000         -0.009833          0.000000
H             -0.799571         -0.580965          0.000000
H              0.799571         -0.580965          0.000000
O             -0.001283          5.506278          0.000000
H              0.716900          6.176889          0.000000
H             -0.868562          5.968159          0.000000

