6

O              0.000000         -0.009833          0.000000
H             -0.799571         -0.580965          0.000000
H              0.799571         -0.580965          0.000000
O             -0.006953          4.280258          0.000000
H              0.154578          5.249492          0.000000
H             -0.976187          4.118727          0.000000

