6

O              0.000000         -0.009833          0.000000
H             -0.799571         -0.580965          0.000000
H              0.799571         -0.580965          0.000000
O             -0.004917          2.074700          0.000000
H              0.401967          2.969101          0.000000
H             -0.982932          2.169529          0.000000

