6

O              0.000000         -0.009833          0.000000
H             -0.799571         -0.580965          0.000000
H              0.799571         -0.580965          0.000000
O             -0.009833          4.751958          0.000000
H             -0.580965          5.551530          0.000000
H             -0.580965          3.952387          0.000000

