6

O              0.000000         -0.009833          0.000000
H             -0.799571         -0.580965          0.000000
H              0.799571         -0.580965          0.000000
O             -0.008176          2.949178          0.000000
H             -0.038837          3.931301          0.000000
H             -0.927273          2.601662          0.000000

