6

O              0.000000         -0.009833          0.000000
H             -0.799571         -0.580965          0.000000
H              0.799571         -0.580965          0.000000
O             -0.008516          3.879345          0.000000
H             -0.103345          4.857360          0.000000
H             -0.902916          3.472461          0.000000

