6

O              0.000000         -0.009833          0.000000
H             -0.799571         -0.580965          0.000000
H              0.799571         -0.580965          0.000000
O             -0.008176          1.805729          0.000000
H             -0.038837          2.787852          0.000000
H             -0.927273          1.458214          0.000000

