6

O              0.000000         -0.009833          0.000000
H             -0.799571         -0.580965          0.000000
H              0.799571         -0.580965          0.000000
O             -0.007801          3.029476          0.000000
H              0.025838          4.011502          0.000000
H             -0.947659          2.742816          0.000000

