6

O              0.000000         -0.009833          0.000000
H             -0.799571         -0.580965          0.000000
H              0.799571         -0.580965          0.000000
O             -0.005463          3.191217          0.000000
H              0.342052          4.110314          0.000000
H             -0.987586          3.221877          0.000000

