6

O              0.000000         -0.009833          0.000000
H             -0.799571         -0.580965          0.000000
H              0.799571         -0.580965          0.000000
O             -0.001283          2.288668          0.000000
H              0.716900          2.959279          0.000000
H             -0.868562          2.750549          0.000000

