6

O              0.000000         -0.009833          0.000000
H             -0.799571         -0.580965          0.000000
H              0.799571         -0.580965          0.000000
O             -0.007801          6.592780          0.000000
H              0.025838          7.574805          0.000000
H             -0.947659          6.306120          0.000000

