6

O              0.000000         -0.009833          0.000000
H             -0.799571         -0.580965          0.000000
H              0.799571         -0.580965          0.000000
O             -0.007801          4.013373          0.000000
H              0.025838          4.995399          0.000000
H             -0.947659          3.726714          0.000000

