6

O              0.000000         -0.009833          0.000000
H             -0.799571         -0.580965          0.000000
H              0.799571         -0.580965          0.000000
O             -0.004349          3.085493          0.000000
H              0.460159          3.951367          0.000000
H             -0.974068          3.244084          0.000000

