6

O              0.000000         -0.009833          0.000000
H             -0.799571         -0.580965          0.000000
H              0.799571         -0.580965          0.000000
O             -0.009085          5.340741          0.000000
H             -0.230759          6.298012          0.000000
H             -0.842725          4.820596          0.000000

