6

O              0.000000         -0.009833          0.000000
H             -0.799571         -0.580965          0.000000
H              0.799571         -0.580965          0.000000
O             -0.009085          3.692048          0.000000
H             -0.230759          4.649319          0.000000
H             -0.842725          3.171904          0.000000

