6

O              0.000000         -0.009833          0.000000
H             -0.799571         -0.580965          0.000000
H              0.799571         -0.580965          0.000000
O             -0.005463          5.265379          0.000000
H              0.342052          6.184476          0.000000
H             -0.987586          5.296039          0.000000

