6

O              0.000000         -0.009833          0.000000
H             -0.799571         -0.580965          0.000000
H              0.799571         -0.580965          0.000000
O             -0.009644          4.301816          0.000000
H             -0.413813          5.197446          0.000000
H             -0.725791          3.629030          0.000000

