6

O              0.000000         -0.009833          0.000000
H             -0.799571         -0.580965          0.000000
H              0.799571         -0.580965          0.000000
O             -0.006483          5.025269          0.000000
H              0.218093          5.981863          0.000000
H             -0.984207          4.927475          0.000000

