6

O              0.000000         -0.009833          0.000000
H             -0.799571         -0.580965          0.000000
H              0.799571         -0.580965          0.000000
O             -0.007393          2.710872          0.000000
H              0.090401          3.688595          0.000000
H             -0.963987          2.486295          0.000000

