6

O              0.000000         -0.009833          0.000000
H             -0.799571         -0.580965          0.000000
H              0.799571         -0.580965          0.000000
O             -0.003161          1.703210          0.000000
H              0.570393          2.501046          0.000000
H             -0.943883          1.987019          0.000000

