6

O              0.000000         -0.009833          0.000000
H             -0.799571         -0.580965          0.000000
H              0.799571         -0.580965          0.000000
O             -0.008819          5.580654          0.000000
H             -0.167410          6.550373          0.000000
H             -0.874693          5.116145          0.000000

