6

O              0.000000         -0.009833          0.000000
H             -0.799571         -0.580965          0.000000
H              0.799571         -0.580965          0.000000
O             -0.007393          4.997768          0.000000
H              0.090401          5.975491          0.000000
H             -0.963987          4.773192          0.000000

