6

O              0.000000         -0.009833          0.000000
H             -0.799571         -0.580965          0.000000
H              0.799571         -0.580965          0.000000
O             -0.009498          3.318545          0.000000
H             -0.354225          4.238691          0.000000
H             -0.768113          2.694038          0.000000

