6

O              0.000000         -0.009833          0.000000
H             -0.799571         -0.580965          0.000000
H              0.799571         -0.580965          0.000000
O             -0.004917          1.861966          0.000000
H              0.401967          2.756366          0.000000
H             -0.982932          1.956795          0.000000

