6

O              0.000000         -0.009833          0.000000
H             -0.799571         -0.580965          0.000000
H              0.799571         -0.580965          0.000000
O             -0.009812          2.385929          0.000000
H             -0.527427          3.221143          0.000000
H             -0.632016          1.625424          0.000000

