6

O              0.000000         -0.009833          0.000000
H             -0.799571         -0.580965          0.000000
H              0.799571         -0.580965          0.000000
O             -0.009812          3.369827          0.000000
H             -0.527427          4.205040          0.000000
H             -0.632016          2.609321          0.000000

