6

O              0.000000         -0.009833          0.000000
H             -0.799571         -0.580965          0.000000
H              0.799571         -0.580965          0.000000
O             -0.009812          4.699418          0.000000
H             -0.527427          5.534631          0.000000
H             -0.632016          3.938912          0.000000

