6

O              0.000000         -0.009833          0.000000
H             -0.799571         -0.580965          0.000000
H              0.799571         -0.580965          0.000000
O             -0.009644          5.684590          0.000000
H             -0.413813          6.580220          0.000000
H             -0.725791          5.011805          0.000000

