6

O              0.000000         -0.009833          0.000000
H             -0.799571         -0.580965          0.000000
H              0.799571         -0.580965          0.000000
O             -0.009833          3.050082          0.000000
H             -0.580965          3.849653          0.000000
H             -0.580965          2.250510          0.000000

