6

O              0.000000         -0.009833          0.000000
H             -0.799571         -0.580965          0.000000
H              0.799571         -0.580965          0.000000
O             -0.008176          4.544687          0.000000
H             -0.038837          5.526810          0.000000
H             -0.927273          4.197171          0.000000

