6

O              0.000000         -0.009833          0.000000
H             -0.799571         -0.580965          0.000000
H              0.799571         -0.580965          0.000000
O             -0.000643          2.714200          0.000000
H              0.759863          3.336404          0.000000
H             -0.835856          3.231815          0.000000

