6

O              0.000000         -0.009833          0.000000
H             -0.799571         -0.580965          0.000000
H              0.799571         -0.580965          0.000000
O             -0.009749          3.689569          0.000000
H             -0.471630          4.556848          0.000000
H             -0.680360          2.971386          0.000000

