6

O              0.000000         -0.009833          0.000000
H             -0.799571         -0.580965          0.000000
H              0.799571         -0.580965          0.000000
O             -0.005986          1.621925          0.000000
H              0.280674          2.561782          0.000000
H             -0.988012          1.588286          0.000000

