6

O              0.000000         -0.009833          0.000000
H             -0.799571         -0.580965          0.000000
H              0.799571         -0.580965          0.000000
O             -0.004349          5.691491          0.000000
H              0.460159          6.557365          0.000000
H             -0.974068          5.850082          0.000000

