6

O              0.000000         -0.009833          0.000000
H             -0.799571         -0.580965          0.000000
H              0.799571         -0.580965          0.000000
O             -0.000643          4.416077          0.000000
H              0.759863          5.038280          0.000000
H             -0.835856          4.933691          0.000000

