6

O              0.000000         -0.009833          0.000000
H             -0.799571         -0.580965          0.000000
H              0.799571         -0.580965          0.000000
O             -0.003161          2.740291          0.000000
H              0.570393          3.538127          0.000000
H             -0.943883          3.024099          0.000000

