6

O              0.000000         -0.009833          0.000000
H             -0.799571         -0.580965          0.000000
H              0.799571         -0.580965          0.000000
O             -0.009812          2.492297          0.000000
H             -0.527427          3.327510          0.000000
H             -0.632016          1.731791          0.000000

