6

O              0.000000         -0.009833          0.000000
H             -0.799571         -0.580965          0.000000
H              0.799571         -0.580965          0.000000
O             -0.009749          6.880587          0.000000
H             -0.471630          7.747866          0.000000
H             -0.680360          6.162404          0.000000

