6

O              0.000000         -0.009833          0.000000
H             -0.799571         -0.580965          0.000000
H              0.799571         -0.580965          0.000000
O             -0.001283          6.702910          0.000000
H              0.716900          7.373521          0.000000
H             -0.868562          7.164791          0.000000

