6

O              0.000000         -0.009833          0.000000
H             -0.799571         -0.580965          0.000000
H              0.799571         -0.580965          0.000000
O             -0.000643          2.129180          0.000000
H              0.759863          2.751384          0.000000
H             -0.835856          2.646795          0.000000

