6

O              0.000000         -0.009833          0.000000
H             -0.799571         -0.580965          0.000000
H              0.799571         -0.580965          0.000000
O             -0.005463          4.494216          0.000000
H              0.342052          5.413313          0.000000
H             -0.987586          4.524876          0.000000

