6

O              0.000000         -0.009833          0.000000
H             -0.799571         -0.580965          0.000000
H              0.799571         -0.580965          0.000000
O             -0.008176          3.800116          0.000000
H             -0.038837          4.782239          0.000000
H             -0.927273          3.452600          0.000000

