6

O              0.000000         -0.009833          0.000000
H             -0.799571         -0.580965          0.000000
H              0.799571         -0.580965          0.000000
O             -0.003161          4.654902          0.000000
H              0.570393          5.452738          0.000000
H             -0.943883          4.938711          0.000000

