6

O              0.000000         -0.009833          0.000000
H             -0.799571         -0.580965          0.000000
H              0.799571         -0.580965          0.000000
O              0.000000          4.868159          0.000000
H              0.799571          5.439291          0.000000
H             -0.799571          5.439290          0.000000

