6

O              0.000000         -0.009833          0.000000
H             -0.799571         -0.580965          0.000000
H              0.799571         -0.580965          0.000000
O             -0.005986          3.962005          0.000000
H              0.280674          4.901863          0.000000
H             -0.988012          3.928366          0.000000

