6

O              0.000000         -0.009833          0.000000
H             -0.799571         -0.580965          0.000000
H              0.799571         -0.580965          0.000000
O             -0.009812          5.045111          0.000000
H             -0.527427          5.880325          0.000000
H             -0.632016          4.284606          0.000000

