6

O              0.000000         -0.009833          0.000000
H             -0.799571         -0.580965          0.000000
H              0.799571         -0.580965          0.000000
O             -0.004349          3.909839          0.000000
H              0.460159          4.775713          0.000000
H             -0.974068          4.068430          0.000000

