6

O              0.000000         -0.009833          0.000000
H             -0.799571         -0.580965          0.000000
H              0.799571         -0.580965          0.000000
O             -0.009498          2.441015          0.000000
H             -0.354225          3.361161          0.000000
H             -0.768113          1.816508          0.000000

