6

O              0.000000         -0.009833          0.000000
H             -0.799571         -0.580965          0.000000
H              0.799571         -0.580965          0.000000
O             -0.008516          4.065488          0.000000
H             -0.103345          5.043503          0.000000
H             -0.902916          3.658604          0.000000

