6

O              0.000000         -0.009833          0.000000
H             -0.799571         -0.580965          0.000000
H              0.799571         -0.580965          0.000000
O             -0.009749          3.397059          0.000000
H             -0.471630          4.264338          0.000000
H             -0.680360          2.678876          0.000000

