6

O              0.000000         -0.009833          0.000000
H             -0.799571         -0.580965          0.000000
H              0.799571         -0.580965          0.000000
O             -0.009311          1.617284          0.000000
H             -0.293120          2.558007          0.000000
H             -0.807147          1.043730          0.000000

