6

O              0.000000         -0.009833          0.000000
H             -0.799571         -0.580965          0.000000
H              0.799571         -0.580965          0.000000
O             -0.006953          6.806481          0.000000
H              0.154578          7.775715          0.000000
H             -0.976187          6.644950          0.000000

