6

O              0.000000         -0.009833          0.000000
H             -0.799571         -0.580965          0.000000
H              0.799571         -0.580965          0.000000
O             -0.003161          5.878126          0.000000
H              0.570393          6.675962          0.000000
H             -0.943883          6.161934          0.000000

