6

O              0.000000         -0.009833          0.000000
H             -0.799571         -0.580965          0.000000
H              0.799571         -0.580965          0.000000
O             -0.004917          5.345494          0.000000
H              0.401967          6.239895          0.000000
H             -0.982932          5.440323          0.000000

