6

O              0.000000         -0.009833          0.000000
H             -0.799571         -0.580965          0.000000
H              0.799571         -0.580965          0.000000
O             -0.002545          6.436741          0.000000
H              0.621962          7.195357          0.000000
H             -0.922692          6.781468          0.000000

