6

O              0.000000         -0.009833          0.000000
H             -0.799571         -0.580965          0.000000
H              0.799571         -0.580965          0.000000
O             -0.009812          5.390805          0.000000
H             -0.527427          6.226018          0.000000
H             -0.632016          4.630299          0.000000

