6

O              0.000000         -0.009833          0.000000
H             -0.799571         -0.580965          0.000000
H              0.799571         -0.580965          0.000000
O             -0.002545          3.458457          0.000000
H              0.621962          4.217073          0.000000
H             -0.922692          3.803184          0.000000

