6

O              0.000000         -0.009833          0.000000
H             -0.799571         -0.580965          0.000000
H              0.799571         -0.580965          0.000000
O             -0.005986          4.892718          0.000000
H              0.280674          5.832576          0.000000
H             -0.988012          4.859080          0.000000

