6

O              0.000000         -0.009833          0.000000
H             -0.799571         -0.580965          0.000000
H              0.799571         -0.580965          0.000000
O             -0.005463          3.483727          0.000000
H              0.342052          4.402824          0.000000
H             -0.987586          3.514388          0.000000

