6

O              0.000000         -0.009833          0.000000
H             -0.799571         -0.580965          0.000000
H              0.799571         -0.580965          0.000000
O             -0.009644          4.354999          0.000000
H             -0.413813          5.250629          0.000000
H             -0.725791          3.682214          0.000000

