6

O              0.000000         -0.009833          0.000000
H             -0.799571         -0.580965          0.000000
H              0.799571         -0.580965          0.000000
O             -0.005986          6.860513          0.000000
H              0.280674          7.800371          0.000000
H             -0.988012          6.826875          0.000000

