6

O              0.000000         -0.009833          0.000000
H             -0.799571         -0.580965          0.000000
H              0.799571         -0.580965          0.000000
O             -0.007393          6.380543          0.000000
H              0.090401          7.358266          0.000000
H             -0.963987          6.155966          0.000000

