6

O              0.000000         -0.009833          0.000000
H             -0.799571         -0.580965          0.000000
H              0.799571         -0.580965          0.000000
O             -0.008516          3.161366          0.000000
H             -0.103345          4.139381          0.000000
H             -0.902916          2.754482          0.000000

