6

O              0.000000         -0.009833          0.000000
H             -0.799571         -0.580965          0.000000
H              0.799571         -0.580965          0.000000
O             -0.009311          2.654365          0.000000
H             -0.293120          3.595088          0.000000
H             -0.807147          2.080811          0.000000

