6

O              0.000000         -0.009833          0.000000
H             -0.799571         -0.580965          0.000000
H              0.799571         -0.580965          0.000000
O             -0.003161          3.697597          0.000000
H              0.570393          4.495432          0.000000
H             -0.943883          3.981405          0.000000

