6

O              0.000000         -0.009833          0.000000
H             -0.799571         -0.580965          0.000000
H              0.799571         -0.580965          0.000000
O             -0.006953          2.631566          0.000000
H              0.154578          3.600799          0.000000
H             -0.976187          2.470035          0.000000

