6

O              0.000000         -0.009833          0.000000
H             -0.799571         -0.580965          0.000000
H              0.799571         -0.580965          0.000000
O             -0.009311          3.398936          0.000000
H             -0.293120          4.339659          0.000000
H             -0.807147          2.825382          0.000000

