6

O              0.000000         -0.009833          0.000000
H             -0.799571         -0.580965          0.000000
H              0.799571         -0.580965          0.000000
O             -0.006483          4.573208          0.000000
H              0.218093          5.529802          0.000000
H             -0.984207          4.475414          0.000000

