6

O              0.000000         -0.009833          0.000000
H             -0.799571         -0.580965          0.000000
H              0.799571         -0.580965          0.000000
O             -0.002545          2.713886          0.000000
H              0.621962          3.472502          0.000000
H             -0.922692          3.058613          0.000000

