6

O              0.000000         -0.009833          0.000000
H             -0.799571         -0.580965          0.000000
H              0.799571         -0.580965          0.000000
O             -0.001283          4.442605          0.000000
H              0.716900          5.113216          0.000000
H             -0.868562          4.904486          0.000000

