6

O              0.000000         -0.009833          0.000000
H             -0.799571         -0.580965          0.000000
H              0.799571         -0.580965          0.000000
O             -0.004349          6.409470          0.000000
H              0.460159          7.275344          0.000000
H             -0.974068          6.568061          0.000000

