6

O              0.000000         -0.009833          0.000000
H             -0.799571         -0.580965          0.000000
H              0.799571         -0.580965          0.000000
O             -0.001918          2.714032          0.000000
H              0.670867          3.430179          0.000000
H             -0.897548          3.118202          0.000000

