6

O              0.000000         -0.009833          0.000000
H             -0.799571         -0.580965          0.000000
H              0.799571         -0.580965          0.000000
O             -0.009498          6.350012          0.000000
H             -0.354225          7.270159          0.000000
H             -0.768113          5.725506          0.000000

