6

O              0.000000         -0.009833          0.000000
H             -0.799571         -0.580965          0.000000
H              0.799571         -0.580965          0.000000
O             -0.005463          2.260503          0.000000
H              0.342052          3.179600          0.000000
H             -0.987586          2.291164          0.000000

