6

O              0.000000         -0.009833          0.000000
H             -0.799571         -0.580965          0.000000
H              0.799571         -0.580965          0.000000
O             -0.001918          2.581073          0.000000
H              0.670867          3.297220          0.000000
H             -0.897548          2.985242          0.000000

