6

O              0.000000         -0.009833          0.000000
H             -0.799571         -0.580965          0.000000
H              0.799571         -0.580965          0.000000
O             -0.008516          2.044509          0.000000
H             -0.103345          3.022524          0.000000
H             -0.902916          1.637626          0.000000

