6

O              0.000000         -0.009833          0.000000
H             -0.799571         -0.580965          0.000000
H              0.799571         -0.580965          0.000000
O             -0.006483          3.004291          0.000000
H              0.218093          3.960885          0.000000
H             -0.984207          2.906497          0.000000

