6

O              0.000000         -0.009833          0.000000
H             -0.799571         -0.580965          0.000000
H              0.799571         -0.580965          0.000000
O             -0.002545          5.692170          0.000000
H              0.621962          6.450785          0.000000
H             -0.922692          6.036897          0.000000

