6

O              0.000000         -0.009833          0.000000
H             -0.799571         -0.580965          0.000000
H              0.799571         -0.580965          0.000000
O             -0.008516          4.038896          0.000000
H             -0.103345          5.016911          0.000000
H             -0.902916          3.632012          0.000000

