6

O              0.000000         -0.009833          0.000000
H             -0.799571         -0.580965          0.000000
H              0.799571         -0.580965          0.000000
O             -0.005463          6.887480          0.000000
H              0.342052          7.806577          0.000000
H             -0.987586          6.918140          0.000000

