6

O              0.000000         -0.009833          0.000000
H             -0.799571         -0.580965          0.000000
H              0.799571         -0.580965          0.000000
O             -0.004917          1.915149          0.000000
H              0.401967          2.809550          0.000000
H             -0.982932          2.009978          0.000000

