6

O              0.000000         -0.009833          0.000000
H             -0.799571         -0.580965          0.000000
H              0.799571         -0.580965          0.000000
O             -0.006483          3.695678          0.000000
H              0.218093          4.652272          0.000000
H             -0.984207          3.597884          0.000000

