6

O              0.000000         -0.009833          0.000000
H             -0.799571         -0.580965          0.000000
H              0.799571         -0.580965          0.000000
O             -0.004349          5.266022          0.000000
H              0.460159          6.131896          0.000000
H             -0.974068          5.424613          0.000000

