6

O              0.000000         -0.009833          0.000000
H             -0.799571         -0.580965          0.000000
H              0.799571         -0.580965          0.000000
O             -0.007393          4.067054          0.000000
H              0.090401          5.044777          0.000000
H             -0.963987          3.842478          0.000000

