6

O              0.000000         -0.009833          0.000000
H             -0.799571         -0.580965          0.000000
H              0.799571         -0.580965          0.000000
O             -0.000643          2.900343          0.000000
H              0.759863          3.522547          0.000000
H             -0.835856          3.417958          0.000000

