6

O              0.000000         -0.009833          0.000000
H             -0.799571         -0.580965          0.000000
H              0.799571         -0.580965          0.000000
O             -0.009833          5.709264          0.000000
H             -0.580965          6.508835          0.000000
H             -0.580965          4.909693          0.000000

