6

O              0.000000         -0.009833          0.000000
H             -0.799571         -0.580965          0.000000
H              0.799571         -0.580965          0.000000
O             -0.007801          1.859436          0.000000
H              0.025838          2.841462          0.000000
H             -0.947659          1.572776          0.000000

