6

O              0.000000         -0.009833          0.000000
H             -0.799571         -0.580965          0.000000
H              0.799571         -0.580965          0.000000
O             -0.008176          3.853299          0.000000
H             -0.038837          4.835422          0.000000
H             -0.927273          3.505784          0.000000

