6

O              0.000000         -0.009833          0.000000
H             -0.799571         -0.580965          0.000000
H              0.799571         -0.580965          0.000000
O             -0.000643          2.155772          0.000000
H              0.759863          2.777976          0.000000
H             -0.835856          2.673387          0.000000

