6

O              0.000000         -0.009833          0.000000
H             -0.799571         -0.580965          0.000000
H              0.799571         -0.580965          0.000000
O             -0.009311          5.765608          0.000000
H             -0.293120          6.706331          0.000000
H             -0.807147          5.192054          0.000000

