6

O              0.000000         -0.009833          0.000000
H             -0.799571         -0.580965          0.000000
H              0.799571         -0.580965          0.000000
O             -0.001918          5.054112          0.000000
H              0.670867          5.770259          0.000000
H             -0.897548          5.458282          0.000000

