6

O              0.000000         -0.009833          0.000000
H             -0.799571         -0.580965          0.000000
H              0.799571         -0.580965          0.000000
O             -0.009311          2.042753          0.000000
H             -0.293120          2.983476          0.000000
H             -0.807147          1.469199          0.000000

