6

O              0.000000         -0.009833          0.000000
H             -0.799571         -0.580965          0.000000
H              0.799571         -0.580965          0.000000
O             -0.003763          2.155045          0.000000
H              0.516382          2.988684          0.000000
H             -0.961033          2.376719          0.000000

