6

O              0.000000         -0.009833          0.000000
H             -0.799571         -0.580965          0.000000
H              0.799571         -0.580965          0.000000
O             -0.002545          4.761456          0.000000
H              0.621962          5.520072          0.000000
H             -0.922692          5.106183          0.000000

