6

O              0.000000         -0.009833          0.000000
H             -0.799571         -0.580965          0.000000
H              0.799571         -0.580965          0.000000
O             -0.003161          3.644413          0.000000
H              0.570393          4.442249          0.000000
H             -0.943883          3.928221          0.000000

