6

O              0.000000         -0.009833          0.000000
H             -0.799571         -0.580965          0.000000
H              0.799571         -0.580965          0.000000
O             -0.003763          4.628084          0.000000
H              0.516382          5.461724          0.000000
H             -0.961033          4.849758          0.000000

