6

O              0.000000         -0.009833          0.000000
H             -0.799571         -0.580965          0.000000
H              0.799571         -0.580965          0.000000
O             -0.002545          5.612394          0.000000
H              0.621962          6.371010          0.000000
H             -0.922692          5.957121          0.000000

