6

O              0.000000         -0.009833          0.000000
H             -0.799571         -0.580965          0.000000
H              0.799571         -0.580965          0.000000
O             -0.001283          3.884177          0.000000
H              0.716900          4.554788          0.000000
H             -0.868562          4.346058          0.000000

