6

O              0.000000         -0.009833          0.000000
H             -0.799571         -0.580965          0.000000
H              0.799571         -0.580965          0.000000
O             -0.009812          3.742112          0.000000
H             -0.527427          4.577325          0.000000
H             -0.632016          2.981606          0.000000

