6

O              0.000000         -0.009833          0.000000
H             -0.799571         -0.580965          0.000000
H              0.799571         -0.580965          0.000000
O             -0.009311          6.430404          0.000000
H             -0.293120          7.371126          0.000000
H             -0.807147          5.856850          0.000000

