6

O              0.000000         -0.009833          0.000000
H             -0.799571         -0.580965          0.000000
H              0.799571         -0.580965          0.000000
O             -0.006483          2.844740          0.000000
H              0.218093          3.801334          0.000000
H             -0.984207          2.746946          0.000000

