6

O              0.000000         -0.009833          0.000000
H             -0.799571         -0.580965          0.000000
H              0.799571         -0.580965          0.000000
O             -0.005463          4.760134          0.000000
H              0.342052          5.679231          0.000000
H             -0.987586          4.790795          0.000000

