6

O              0.000000         -0.009833          0.000000
H             -0.799571         -0.580965          0.000000
H              0.799571         -0.580965          0.000000
O             -0.001918          4.761602          0.000000
H              0.670867          5.477749          0.000000
H             -0.897548          5.165772          0.000000

