6

O              0.000000         -0.009833          0.000000
H             -0.799571         -0.580965          0.000000
H              0.799571         -0.580965          0.000000
O             -0.009812          6.826763          0.000000
H             -0.527427          7.661976          0.000000
H             -0.632016          6.066257          0.000000

