6

O              0.000000         -0.009833          0.000000
H             -0.799571         -0.580965          0.000000
H              0.799571         -0.580965          0.000000
O             -0.008516          5.235528          0.000000
H             -0.103345          6.213543          0.000000
H             -0.902916          4.828644          0.000000

