6

O              0.000000         -0.009833          0.000000
H             -0.799571         -0.580965          0.000000
H              0.799571         -0.580965          0.000000
O             -0.006483          3.509536          0.000000
H              0.218093          4.466130          0.000000
H             -0.984207          3.411741          0.000000

