6

O              0.000000         -0.009833          0.000000
H             -0.799571         -0.580965          0.000000
H              0.799571         -0.580965          0.000000
O              0.000000          4.735200          0.000000
H              0.799571          5.306332          0.000000
H             -0.799571          5.306331          0.000000

