6

O              0.000000         -0.009833          0.000000
H             -0.799571         -0.580965          0.000000
H              0.799571         -0.580965          0.000000
O             -0.008819          4.969042          0.000000
H             -0.167410          5.938761          0.000000
H             -0.874693          4.504533          0.000000

