6

O              0.000000         -0.009833          0.000000
H             -0.799571         -0.580965          0.000000
H              0.799571         -0.580965          0.000000
O             -0.002545          3.245722          0.000000
H              0.621962          4.004338          0.000000
H             -0.922692          3.590449          0.000000

