6

O              0.000000         -0.009833          0.000000
H             -0.799571         -0.580965          0.000000
H              0.799571         -0.580965          0.000000
O             -0.005986          5.318188          0.000000
H              0.280674          6.258045          0.000000
H             -0.988012          5.284549          0.000000

