6

O              0.000000         -0.009833          0.000000
H             -0.799571         -0.580965          0.000000
H              0.799571         -0.580965          0.000000
O             -0.009749          5.231895          0.000000
H             -0.471630          6.099173          0.000000
H             -0.680360          4.513711          0.000000

