6

O              0.000000         -0.009833          0.000000
H             -0.799571         -0.580965          0.000000
H              0.799571         -0.580965          0.000000
O             -0.009749          5.364853          0.000000
H             -0.471630          6.232132          0.000000
H             -0.680360          4.646670          0.000000

