6

O              0.000000         -0.009833          0.000000
H             -0.799571         -0.580965          0.000000
H              0.799571         -0.580965          0.000000
O             -0.007801          1.992395          0.000000
H              0.025838          2.974421          0.000000
H             -0.947659          1.705736          0.000000

