6

O              0.000000         -0.009833          0.000000
H             -0.799571         -0.580965          0.000000
H              0.799571         -0.580965          0.000000
O             -0.009833          4.246714          0.000000
H             -0.580965          5.046285          0.000000
H             -0.580965          3.447142          0.000000

