6

O              0.000000         -0.009833          0.000000
H             -0.799571         -0.580965          0.000000
H              0.799571         -0.580965          0.000000
O             -0.009749          2.971590          0.000000
H             -0.471630          3.838868          0.000000
H             -0.680360          2.253407          0.000000

