6

O              0.000000         -0.009833          0.000000
H             -0.799571         -0.580965          0.000000
H              0.799571         -0.580965          0.000000
O             -0.007801          6.007760          0.000000
H              0.025838          6.989785          0.000000
H             -0.947659          5.721100          0.000000

