6

O              0.000000         -0.009833          0.000000
H             -0.799571         -0.580965          0.000000
H              0.799571         -0.580965          0.000000
O             -0.007801          6.406637          0.000000
H              0.025838          7.388663          0.000000
H             -0.947659          6.119977          0.000000

