6

O              0.000000         -0.009833          0.000000
H             -0.799571         -0.580965          0.000000
H              0.799571         -0.580965          0.000000
O             -0.009749          5.923282          0.000000
H             -0.471630          6.790561          0.000000
H             -0.680360          5.205099          0.000000

