6

O              0.000000         -0.009833          0.000000
H             -0.799571         -0.580965          0.000000
H              0.799571         -0.580965          0.000000
O             -0.008176          4.305360          0.000000
H             -0.038837          5.287484          0.000000
H             -0.927273          3.957845          0.000000

