6

O              0.000000         -0.009833          0.000000
H             -0.799571         -0.580965          0.000000
H              0.799571         -0.580965          0.000000
O             -0.007801          6.752331          0.000000
H              0.025838          7.734357          0.000000
H             -0.947659          6.465671          0.000000

