6

O              0.000000         -0.009833          0.000000
H             -0.799571         -0.580965          0.000000
H              0.799571         -0.580965          0.000000
O             -0.002545          4.548722          0.000000
H              0.621962          5.307337          0.000000
H             -0.922692          4.893449          0.000000

