6

O              0.000000         -0.009833          0.000000
H             -0.799571         -0.580965          0.000000
H              0.799571         -0.580965          0.000000
O             -0.008516          6.698078          0.000000
H             -0.103345          7.676093          0.000000
H             -0.902916          6.291194          0.000000

