6

O              0.000000         -0.009833          0.000000
H             -0.799571         -0.580965          0.000000
H              0.799571         -0.580965          0.000000
O             -0.003763          5.798124          0.000000
H              0.516382          6.631764          0.000000
H             -0.961033          6.019798          0.000000

