6

O              0.000000         -0.009833          0.000000
H             -0.799571         -0.580965          0.000000
H              0.799571         -0.580965          0.000000
O             -0.007801          2.151946          0.000000
H              0.025838          3.133972          0.000000
H             -0.947659          1.865286          0.000000

