6

O              0.000000         -0.009833          0.000000
H             -0.799571         -0.580965          0.000000
H              0.799571         -0.580965          0.000000
O             -0.005463          1.994585          0.000000
H              0.342052          2.913682          0.000000
H             -0.987586          2.025246          0.000000

