6

O              0.000000         -0.009833          0.000000
H             -0.799571         -0.580965          0.000000
H              0.799571         -0.580965          0.000000
O             -0.004917          6.834636          0.000000
H              0.401967          7.729036          0.000000
H             -0.982932          6.929465          0.000000

