6

O              0.000000         -0.009833          0.000000
H             -0.799571         -0.580965          0.000000
H              0.799571         -0.580965          0.000000
O             -0.007801          2.417864          0.000000
H              0.025838          3.399890          0.000000
H             -0.947659          2.131205          0.000000

