6

O              0.000000         -0.009833          0.000000
H             -0.799571         -0.580965          0.000000
H              0.799571         -0.580965          0.000000
O             -0.004349          4.175757          0.000000
H              0.460159          5.041631          0.000000
H             -0.974068          4.334349          0.000000

