6

O              0.000000         -0.009833          0.000000
H             -0.799571         -0.580965          0.000000
H              0.799571         -0.580965          0.000000
O             -0.009085          6.244863          0.000000
H             -0.230759          7.202134          0.000000
H             -0.842725          5.724718          0.000000

