6

O              0.000000         -0.009833          0.000000
H             -0.799571         -0.580965          0.000000
H              0.799571         -0.580965          0.000000
O             -0.005986          3.430168          0.000000
H              0.280674          4.370026          0.000000
H             -0.988012          3.396530          0.000000

