6

O              0.000000         -0.009833          0.000000
H             -0.799571         -0.580965          0.000000
H              0.799571         -0.580965          0.000000
O             -0.000643          2.528057          0.000000
H              0.759863          3.150261          0.000000
H             -0.835856          3.045672          0.000000

