6

O              0.000000         -0.009833          0.000000
H             -0.799571         -0.580965          0.000000
H              0.799571         -0.580965          0.000000
O             -0.001918          6.835764          0.000000
H              0.670867          7.551911          0.000000
H             -0.897548          7.239933          0.000000

