6

O              0.000000         -0.009833          0.000000
H             -0.799571         -0.580965          0.000000
H              0.799571         -0.580965          0.000000
O             -0.000643          6.171137          0.000000
H              0.759863          6.793340          0.000000
H             -0.835856          6.688751          0.000000

