6

O              0.000000         -0.009833          0.000000
H             -0.799571         -0.580965          0.000000
H              0.799571         -0.580965          0.000000
O             -0.001918          3.166093          0.000000
H              0.670867          3.882240          0.000000
H             -0.897548          3.570263          0.000000

