6

O              0.000000         -0.009833          0.000000
H             -0.799571         -0.580965          0.000000
H              0.799571         -0.580965          0.000000
O             -0.007801          3.189027          0.000000
H              0.025838          4.171053          0.000000
H             -0.947659          2.902367          0.000000

