6

O              0.000000         -0.009833          0.000000
H             -0.799571         -0.580965          0.000000
H              0.799571         -0.580965          0.000000
O             -0.003161          6.489738          0.000000
H              0.570393          7.287574          0.000000
H             -0.943883          6.773546          0.000000

