6

O              0.000000         -0.009833          0.000000
H             -0.799571         -0.580965          0.000000
H              0.799571         -0.580965          0.000000
O             -0.003161          2.633924          0.000000
H              0.570393          3.431760          0.000000
H             -0.943883          2.917732          0.000000

