6

O              0.000000         -0.009833          0.000000
H             -0.799571         -0.580965          0.000000
H              0.799571         -0.580965          0.000000
O             -0.008819          6.325225          0.000000
H             -0.167410          7.294944          0.000000
H             -0.874693          5.860716          0.000000

