6

O              0.000000         -0.009833          0.000000
H             -0.799571         -0.580965          0.000000
H              0.799571         -0.580965          0.000000
O             -0.008516          2.390203          0.000000
H             -0.103345          3.368218          0.000000
H             -0.902916          1.983320          0.000000

