6

O              0.000000         -0.009833          0.000000
H             -0.799571         -0.580965          0.000000
H              0.799571         -0.580965          0.000000
O             -0.008819          4.038328          0.000000
H             -0.167410          5.008047          0.000000
H             -0.874693          3.573820          0.000000

