6

O              0.000000         -0.009833          0.000000
H             -0.799571         -0.580965          0.000000
H              0.799571         -0.580965          0.000000
O             -0.008516          3.400692          0.000000
H             -0.103345          4.378707          0.000000
H             -0.902916          2.993809          0.000000

