6

O              0.000000         -0.009833          0.000000
H             -0.799571         -0.580965          0.000000
H              0.799571         -0.580965          0.000000
O              0.000000          3.884261          0.000000
H              0.799571          4.455393          0.000000
H             -0.799571          4.455393          0.000000

