6

O              0.000000         -0.009833          0.000000
H             -0.799571         -0.580965          0.000000
H              0.799571         -0.580965          0.000000
O             -0.009833          3.076673          0.000000
H             -0.580965          3.876245          0.000000
H             -0.580965          2.277102          0.000000

