6

O              0.000000         -0.009833          0.000000
H             -0.799571         -0.580965          0.000000
H              0.799571         -0.580965          0.000000
O             -0.004917          3.617026          0.000000
H              0.401967          4.511426          0.000000
H             -0.982932          3.711855          0.000000

