6

O              0.000000         -0.009833          0.000000
H             -0.799571         -0.580965          0.000000
H              0.799571         -0.580965          0.000000
O             -0.006953          4.652544          0.000000
H              0.154578          5.621778          0.000000
H             -0.976187          4.491013          0.000000

