6

O              0.000000         -0.009833          0.000000
H             -0.799571         -0.580965          0.000000
H              0.799571         -0.580965          0.000000
O             -0.009812          4.327132          0.000000
H             -0.527427          5.162345          0.000000
H             -0.632016          3.566626          0.000000

