6

O              0.000000         -0.009833          0.000000
H             -0.799571         -0.580965          0.000000
H              0.799571         -0.580965          0.000000
O             -0.007393          2.870422          0.000000
H              0.090401          3.848145          0.000000
H             -0.963987          2.645846          0.000000

