6

O              0.000000         -0.009833          0.000000
H             -0.799571         -0.580965          0.000000
H              0.799571         -0.580965          0.000000
O             -0.008176          6.007237          0.000000
H             -0.038837          6.989360          0.000000
H             -0.927273          5.659721          0.000000

