6

O              0.000000         -0.009833          0.000000
H             -0.799571         -0.580965          0.000000
H              0.799571         -0.580965          0.000000
O             -0.009311          4.409425          0.000000
H             -0.293120          5.350148          0.000000
H             -0.807147          3.835871          0.000000

