6

O              0.000000         -0.009833          0.000000
H             -0.799571         -0.580965          0.000000
H              0.799571         -0.580965          0.000000
O             -0.007393          4.226605          0.000000
H              0.090401          5.204328          0.000000
H             -0.963987          4.002029          0.000000

