6

O              0.000000         -0.009833          0.000000
H             -0.799571         -0.580965          0.000000
H              0.799571         -0.580965          0.000000
O             -0.009085          3.878191          0.000000
H             -0.230759          4.835462          0.000000
H             -0.842725          3.358046          0.000000

