6

O              0.000000         -0.009833          0.000000
H             -0.799571         -0.580965          0.000000
H              0.799571         -0.580965          0.000000
O             -0.002545          3.671192          0.000000
H              0.621962          4.429807          0.000000
H             -0.922692          4.015919          0.000000

