6

O              0.000000         -0.009833          0.000000
H             -0.799571         -0.580965          0.000000
H              0.799571         -0.580965          0.000000
O             -0.008516          6.671486          0.000000
H             -0.103345          7.649501          0.000000
H             -0.902916          6.264603          0.000000

