6

O              0.000000         -0.009833          0.000000
H             -0.799571         -0.580965          0.000000
H              0.799571         -0.580965          0.000000
O             -0.009311          1.830019          0.000000
H             -0.293120          2.770741          0.000000
H             -0.807147          1.256465          0.000000

