6

O              0.000000         -0.009833          0.000000
H             -0.799571         -0.580965          0.000000
H              0.799571         -0.580965          0.000000
O             -0.007393          3.189524          0.000000
H              0.090401          4.167247          0.000000
H             -0.963987          2.964948          0.000000

