6

O              0.000000         -0.009833          0.000000
H             -0.799571         -0.580965          0.000000
H              0.799571         -0.580965          0.000000
O             -0.005463          6.116317          0.000000
H              0.342052          7.035414          0.000000
H             -0.987586          6.146977          0.000000

