6

O              0.000000         -0.009833          0.000000
H             -0.799571         -0.580965          0.000000
H              0.799571         -0.580965          0.000000
O             -0.007801          5.848209          0.000000
H              0.025838          6.830235          0.000000
H             -0.947659          5.561549          0.000000

