6

O              0.000000         -0.009833          0.000000
H             -0.799571         -0.580965          0.000000
H              0.799571         -0.580965          0.000000
O             -0.009749          5.896690          0.000000
H             -0.471630          6.763968          0.000000
H             -0.680360          5.178507          0.000000

