6

O              0.000000         -0.009833          0.000000
H             -0.799571         -0.580965          0.000000
H              0.799571         -0.580965          0.000000
O             -0.000643          3.166261          0.000000
H              0.759863          3.788465          0.000000
H             -0.835856          3.683876          0.000000

