6

O              0.000000         -0.009833          0.000000
H             -0.799571         -0.580965          0.000000
H              0.799571         -0.580965          0.000000
O             -0.009498          2.946260          0.000000
H             -0.354225          3.866406          0.000000
H             -0.768113          2.321753          0.000000

