6

O              0.000000         -0.009833          0.000000
H             -0.799571         -0.580965          0.000000
H              0.799571         -0.580965          0.000000
O             -0.000643          1.996221          0.000000
H              0.759863          2.618425          0.000000
H             -0.835856          2.513836          0.000000

