6

O              0.000000         -0.009833          0.000000
H             -0.799571         -0.580965          0.000000
H              0.799571         -0.580965          0.000000
O             -0.009085          6.856475          0.000000
H             -0.230759          7.813745          0.000000
H             -0.842725          6.336330          0.000000

